1
    SWAT Jun 11 2014    VER 2012/Rev 627                                            

    General Input/Output section (file.cio):                                        
    1/30/2015 12:00:00 AM ARCGIS-SWAT interface AV                                  
                                                                                    
Annual Summary for Watershed in year    1 of simulation

UNIT                                    PERCO    TILE                           WATER     SED     NO3     NO3     NO3     NO3        N       P       P
TIME     PREC    SURQ    LATQ     GWQ    LATE       Q     SW       ET     PET   YIELD   YIELD    SURQ    LATQ    PERC    CROP  ORGANIC SOLUBLE ORGANIC TILENO3
         (mm)    (mm)    (mm)    (mm)    (mm)    (mm)    (mm)    (mm)    (mm)    (mm)    (mm)   ------------------(kg nutrient/ha)-------------------- (kg/ha)
    1   85.06    7.12    2.71    0.06    0.73    0.00  256.26   23.98   30.07    7.46    0.14    0.01    0.11    0.30    0.00     0.35    0.01    0.01    0.00
    2  122.17   24.61    9.19    4.82   23.11    0.00  281.61   40.53   48.23   41.34    1.12    0.01    0.72    6.59    0.00     3.57    0.07    0.05    0.00
    3   63.18    2.31    4.02    3.90    2.79    0.00  263.35   73.10  103.60   13.98    0.02    0.00    0.08    0.50    0.00     0.18    0.00    0.00    0.00
    4   83.29    4.52    5.52    2.79    3.07    0.00  238.48   95.70  149.76   15.02    0.04    0.01    0.04    0.61    2.63     0.12    0.00    0.00    0.00
    5  105.18    6.20    7.81    3.88    8.31    0.00  215.00  107.35  155.23   20.14    0.02    0.02    0.06    1.46   20.65     0.08    0.01    0.00    0.00
    6  104.69    4.65    5.97    2.33    1.04    0.00  201.88  106.93  140.94   14.50    0.00    0.01    0.01    0.01    7.74     0.01    0.00    0.00    0.00
    7  134.29    7.05    7.98    1.62    5.23    0.00  214.62  100.47  128.50   16.99    0.01    0.00    0.01    0.10    1.47     0.01    0.01    0.00    0.00
    8  153.98   11.24   13.37    4.57   14.49    0.00  227.10  101.47  122.48   31.51    0.01    0.00    0.02    0.46    2.00     0.01    0.02    0.00    0.00
    9   42.80    1.98    3.76    3.17    1.91    0.00  187.51   77.76  117.50   11.91    0.00    0.00    0.00    0.03    2.13     0.00    0.00    0.00    0.00
   10  108.50    5.08    7.13    2.52    4.43    0.00  213.22   64.47   87.12   16.77    0.00    0.00    0.00    0.07    0.72     0.01    0.00    0.00    0.00
   11  127.29   10.23   11.76    3.33   13.02    0.00  255.29   46.14   64.63   25.04    0.00    0.00    0.02    0.44    0.29     0.01    0.01    0.00    0.00
   12   44.84    1.99    8.56    5.07   11.62    0.00  254.73   25.01   37.92   20.90    0.00    0.00    0.02    0.38    0.02     0.00    0.01    0.00    0.00

 1985 1175.25   86.97   87.79   38.08   89.76    0.00  254.73  862.91 1185.97  235.56    1.36    0.07    1.08   10.95   37.65     4.36    0.14    0.08    0.00
1
    SWAT Jun 11 2014    VER 2012/Rev 627                                            

    General Input/Output section (file.cio):                                        
    1/30/2015 12:00:00 AM ARCGIS-SWAT interface AV                                  
                                                                                    
Annual Summary for Watershed in year    2 of simulation

UNIT                                    PERCO    TILE                           WATER     SED     NO3     NO3     NO3     NO3        N       P       P
TIME     PREC    SURQ    LATQ     GWQ    LATE       Q     SW       ET     PET   YIELD   YIELD    SURQ    LATQ    PERC    CROP  ORGANIC SOLUBLE ORGANIC TILENO3
         (mm)    (mm)    (mm)    (mm)    (mm)    (mm)    (mm)    (mm)    (mm)    (mm)    (mm)   ------------------(kg nutrient/ha)-------------------- (kg/ha)
    1   32.05    2.21    3.07    3.06    3.70    0.00  251.03   28.51   50.46   10.88    0.00    0.01    0.02    0.09    0.00     0.00    0.00    0.00    0.00
    2  117.25   13.26   14.85    8.81   32.48    0.00  268.80   34.67   52.50   40.22    0.01    0.03    0.17    1.85    0.01     0.02    0.03    0.00    0.00
    3   74.96    6.58    9.66    9.96   15.53    0.00  242.36   71.93  124.94   33.10    0.00    0.02    0.08    0.74    0.03     0.01    0.01    0.00    0.00
    4   34.82    0.97    2.63    5.72    1.17    0.00  210.03   65.45  146.92   14.42    0.00    0.00    0.02    0.01    3.46     0.00    0.00    0.00    0.00
    5  128.70    7.03    7.29    3.80    6.38    0.00  236.10   79.39  141.71   20.53    0.00    0.05    0.01    0.10   15.03     0.01    0.01    0.00    0.00
    6   70.05    3.10    6.88    5.71    6.49    0.00  191.09  102.51  153.40   18.82    0.00    0.00    0.01    0.15    7.61     0.00    0.01    0.00    0.00
    7   78.23    3.86    5.24    3.80    0.58    0.00  158.52  103.44  154.14   14.88    0.00    0.00    0.00    0.00    1.73     0.00    0.00    0.00    0.00
    8  126.36    5.91    7.39    2.74    2.26    0.00  184.64   84.05  119.43   17.30    0.00    0.00    0.00    0.02    2.31     0.01    0.00    0.00    0.00
    9  101.75    6.18   10.14    3.39    6.40    0.00  184.11   80.70  105.80   21.30    0.00    0.00    0.00    0.03    2.10     0.01    0.01    0.00    0.00
   10  120.97    7.23    9.14    3.41    6.94    0.00  220.20   59.11   93.08   21.24    0.00    0.00    0.00    0.05    0.70     0.01    0.01    0.00    0.00
   11  194.96   20.69   24.53   13.44   55.87    0.00  269.93   36.56   48.76   60.93    0.01    0.01    0.03    0.82    0.24     0.02    0.04    0.01    0.00
   12  129.69   17.75   24.85   27.36   53.41    0.00  276.64   27.16   37.28   80.78    0.01    0.01    0.05    0.84    0.03     0.02    0.04    0.00    0.00

 1986 1209.79   94.77  125.67   91.20  191.22    0.00  276.64  773.49 1228.42  354.39    0.05    0.13    0.40    4.69   33.26     0.12    0.16    0.03    0.00
1
    SWAT Jun 11 2014    VER 2012/Rev 627                                            

    General Input/Output section (file.cio):                                        
    1/30/2015 12:00:00 AM ARCGIS-SWAT interface AV                                  
                                                                                    
Annual Summary for Watershed in year    3 of simulation

UNIT                                    PERCO    TILE                           WATER     SED     NO3     NO3     NO3     NO3        N       P       P
TIME     PREC    SURQ    LATQ     GWQ    LATE       Q     SW       ET     PET   YIELD   YIELD    SURQ    LATQ    PERC    CROP  ORGANIC SOLUBLE ORGANIC TILENO3
         (mm)    (mm)    (mm)    (mm)    (mm)    (mm)    (mm)    (mm)    (mm)    (mm)    (mm)   ------------------(kg nutrient/ha)-------------------- (kg/ha)
    1  112.47   17.62   15.91   19.54   37.82    0.00  290.69   25.09   37.02   62.00    0.01    0.02    0.07    0.65    0.00     0.03    0.04    0.00    0.00
    2  155.07   22.58   19.19   19.95   60.53    0.00  301.33   33.23   46.52   67.77    0.01    0.02    0.09    1.60    0.00     0.03    0.04    0.00    0.00
    3   88.92    6.75   17.10   25.37   23.40    0.00  276.54   73.50  107.51   71.65    0.01    0.02    0.07    0.49    0.02     0.02    0.03    0.00    0.00
    4   87.87    8.51   12.77   13.71   17.96    0.00  243.57   84.28  132.28   46.34    0.01    0.01    0.05    0.41    2.44     0.02    0.02    0.00    0.00
    5   85.80    3.67    5.19    9.13    3.24    0.00  227.55   91.22  159.77   26.73    0.00    0.05    0.01    0.01   15.43     0.01    0.00    0.00    0.00
    6  114.64    4.96    8.31    6.70    7.41    0.00  220.16  102.37  137.02   25.36    0.00    0.01    0.01    0.01    6.23     0.01    0.00    0.00    0.00
    7   82.50    4.33    8.02    7.08    6.88    0.00  179.21  107.47  149.41   24.49    0.00    0.00    0.00    0.00    2.01     0.01    0.01    0.00    0.00
    8   50.84    1.89    3.21    4.82    0.73    0.00  147.67   79.17  137.59   13.38    0.00    0.00    0.00    0.00    1.97     0.00    0.00    0.00    0.00
    9  108.86    4.77    6.78    3.85    1.45    0.00  179.96   62.88  101.01   17.44    0.00    0.00    0.00    0.01    1.28     0.01    0.00    0.00    0.00
   10   21.55    0.58    2.60    3.36    0.44    0.00  150.34   50.59   94.42    8.58    0.00    0.00    0.00    0.00    0.35     0.00    0.00    0.00    0.00
   11  100.41    4.78    6.19    2.89    1.25    0.00  197.70   37.98   68.68   14.85    0.00    0.00    0.00    0.04    0.24     0.01    0.00    0.00    0.00
   12  133.51   12.86   12.37    4.72   17.99    0.00  253.50   28.85   42.14   29.54    0.01    0.01    0.02    0.30    0.03     0.02    0.02    0.00    0.00

 1987 1142.44   93.31  117.64  121.12  179.10    0.00  253.50  776.62 1213.36  408.15    0.07    0.16    0.33    3.51   30.01     0.16    0.17    0.03    0.00
1
    SWAT Jun 11 2014    VER 2012/Rev 627                                            

    General Input/Output section (file.cio):                                        
    1/30/2015 12:00:00 AM ARCGIS-SWAT interface AV                                  
                                                                                    
Annual Summary for Watershed in year    4 of simulation

UNIT                                    PERCO    TILE                           WATER     SED     NO3     NO3     NO3     NO3        N       P       P
TIME     PREC    SURQ    LATQ     GWQ    LATE       Q     SW       ET     PET   YIELD   YIELD    SURQ    LATQ    PERC    CROP  ORGANIC SOLUBLE ORGANIC TILENO3
         (mm)    (mm)    (mm)    (mm)    (mm)    (mm)    (mm)    (mm)    (mm)    (mm)    (mm)   ------------------(kg nutrient/ha)-------------------- (kg/ha)
    1  119.19   20.69   16.82   16.95   40.90    0.00  267.74   26.51   38.47   60.56    0.02    0.02    0.04    0.53    0.00     0.04    0.06    0.00    0.00
    2   73.68    7.04   10.28   14.47   20.40    0.00  264.78   39.26   54.66   40.60    0.01    0.01    0.03    0.29    0.00     0.02    0.02    0.00    0.00
    3   68.84    3.55    5.43    8.85    6.31    0.00  251.82   67.43  100.06   24.35    0.00    0.01    0.02    0.09    0.02     0.01    0.01    0.00    0.00
    4  104.37    6.50    8.68    8.69   12.82    0.00  240.45   88.17  128.88   28.68    0.01    0.01    0.03    0.26    1.05     0.01    0.01    0.00    0.00
    5   62.39    2.57    4.07    5.41    1.13    0.00  204.70   92.99  174.00   15.96    0.00    0.06    0.01    0.01   12.75     0.00    0.00    0.00    0.00
    6   15.42    0.62    1.63    3.52    0.44    0.00  151.35   70.81  167.17    8.13    0.00    0.01    0.01    0.00    8.05     0.00    0.00    0.00    0.00
    7  132.23    5.67    7.19    2.88    1.07    0.00  177.75   90.75  139.05   17.13    0.00    0.01    0.00    0.00    2.62     0.01    0.00    0.00    0.00
    8   84.89    3.38    6.33    2.66    1.64    0.00  159.34   94.02  138.01   13.72    0.00    0.00    0.00    0.00    1.32     0.00    0.00    0.00    0.00
    9  143.77    8.00   10.84    3.79    7.58    0.00  200.79   73.67   98.20   23.79    0.00    0.00    0.00    0.04    1.94     0.01    0.01    0.00    0.00
   10   72.55    3.07    6.45    4.22    4.17    0.00  202.07   58.71   84.01   15.98    0.00    0.00    0.00    0.03    0.35     0.00    0.00    0.00    0.00
   11  165.55   18.13   14.94    6.93   26.14    0.00  257.25   44.27   53.76   40.49    0.01    0.01    0.01    0.24    0.28     0.03    0.03    0.00    0.00
   12   86.65   10.25   10.27   10.57   23.56    0.00  265.31   33.07   45.92   34.42    0.00    0.01    0.01    0.22    0.01     0.01    0.02    0.00    0.00

 1988 1129.53   89.45  102.95   88.93  146.18    0.00  265.31  779.67 1222.19  323.81    0.07    0.15    0.16    1.72   28.40     0.15    0.16    0.03    0.00
1
    SWAT Jun 11 2014    VER 2012/Rev 627                                            

    General Input/Output section (file.cio):                                        
    1/30/2015 12:00:00 AM ARCGIS-SWAT interface AV                                  
                                                                                    
Annual Summary for Watershed in year    5 of simulation

UNIT                                    PERCO    TILE                           WATER     SED     NO3     NO3     NO3     NO3        N       P       P
TIME     PREC    SURQ    LATQ     GWQ    LATE       Q     SW       ET     PET   YIELD   YIELD    SURQ    LATQ    PERC    CROP  ORGANIC SOLUBLE ORGANIC TILENO3
         (mm)    (mm)    (mm)    (mm)    (mm)    (mm)    (mm)    (mm)    (mm)    (mm)    (mm)   ------------------(kg nutrient/ha)-------------------- (kg/ha)
    1  170.28   23.67   27.94   31.05   71.22    0.00  276.74   32.74   43.32   93.60    0.02    0.03    0.05    0.80    0.00     0.04    0.07    0.01    0.00
    2  200.86   32.62   26.97   29.05   80.13    0.00  298.27   29.47   38.94   96.35    0.03    0.03    0.08    1.49    0.01     0.09    0.07    0.01    0.00
    3  149.26   18.73   24.58   34.84   49.35    0.00  283.53   74.97  104.49   98.50    0.02    0.02    0.06    0.76    0.04     0.05    0.06    0.01    0.00
    4  100.88   10.70   15.45   24.43   33.11    0.00  243.85   84.41  133.32   67.16    0.01    0.02    0.04    0.53    3.70     0.04    0.03    0.00    0.00
    5  150.04   12.38   14.29   14.67   17.19    0.00  243.35  106.62  139.89   52.89    0.01    0.05    0.02    0.19   10.47     0.05    0.02    0.01    0.00
    6  252.08   28.19   27.41   21.56   62.37    0.00  271.27  100.00  114.97   86.80    0.04    0.07    0.02    0.44    8.31     0.11    0.06    0.01    0.00
    7  179.42   16.79   22.32   27.64   44.18    0.00  253.66  115.14  134.33   82.36    0.01    0.01    0.01    0.03    1.85     0.05    0.04    0.01    0.00
    8   98.86    5.49    7.76   14.12    4.64    0.00  241.69   94.89  126.55   38.17    0.00    0.00    0.00    0.01    1.51     0.01    0.01    0.00    0.00
    9  203.56   23.81   17.79   11.93   34.37    0.00  286.45   74.73   92.03   55.98    0.04    0.00    0.00    0.10    1.64     0.03    0.03    0.01    0.00
   10   88.34   15.96   19.26   22.04   31.13    0.00  247.58   67.98   89.59   75.08    0.03    0.00    0.00    0.07    0.57     0.03    0.06    0.00    0.00
   11  138.42   12.49   14.98   15.75   32.41    0.00  276.39   45.87   58.11   53.09    0.01    0.01    0.00    0.17    0.20     0.01    0.02    0.00    0.00
   12   85.20   14.89    8.58   14.78   20.67    0.00  293.43   23.31   31.38   42.87    0.01    0.01    0.00    0.13    0.01     0.02    0.02    0.00    0.00

 1989 1817.21  215.71  227.35  261.86  480.76    0.00  293.43  850.13 1106.93  842.83    0.23    0.24    0.30    4.73   28.29     0.53    0.50    0.06    0.00
1
    SWAT Jun 11 2014    VER 2012/Rev 627                                            

    General Input/Output section (file.cio):                                        
    1/30/2015 12:00:00 AM ARCGIS-SWAT interface AV                                  
                                                                                    
Annual Summary for Watershed in year    6 of simulation

UNIT                                    PERCO    TILE                           WATER     SED     NO3     NO3     NO3     NO3        N       P       P
TIME     PREC    SURQ    LATQ     GWQ    LATE       Q     SW       ET     PET   YIELD   YIELD    SURQ    LATQ    PERC    CROP  ORGANIC SOLUBLE ORGANIC TILENO3
         (mm)    (mm)    (mm)    (mm)    (mm)    (mm)    (mm)    (mm)    (mm)    (mm)    (mm)   ------------------(kg nutrient/ha)-------------------- (kg/ha)
    1  157.82   18.45   25.51   26.85   74.01    0.00  290.19   37.15   49.30   86.24    0.02    0.02    0.04    0.67    0.00     0.04    0.05    0.01    0.00
    2  211.72   46.55   34.91   41.89   87.29    0.00  285.50   44.18   56.26  141.49    0.06    0.04    0.06    1.17    0.01     0.13    0.13    0.01    0.00
    3  166.06   23.48   24.06   34.38   53.87    0.00  277.81   71.83   99.80  103.11    0.05    0.02    0.05    0.68    0.03     0.10    0.06    0.01    0.00
    4   96.34    6.74    7.47   18.47    6.88    0.00  256.22   98.68  142.71   47.84    0.01    0.03    0.01    0.09    4.48     0.02    0.01    0.00    0.00
    5  165.12   11.90   14.97   16.71   22.16    0.00  256.12  115.10  143.04   53.85    0.01    0.05    0.02    0.34   11.65     0.03    0.02    0.01    0.00
    6   65.96    3.47    6.35   11.40    2.95    0.00  209.21  104.23  151.21   29.16    0.00    0.02    0.01    0.00    6.83     0.01    0.01    0.00    0.00
    7  118.35    6.81    9.28    8.28    5.55    0.00  208.52   98.31  144.63   29.14    0.01    0.00    0.00    0.00    1.94     0.01    0.01    0.00    0.00
    8   74.21    3.64    5.72    6.88    2.16    0.00  183.88   89.89  141.32   19.55    0.00    0.00    0.00    0.00    1.32     0.01    0.00    0.00    0.00
    9   84.93    3.68    6.54    5.88    3.13    0.00  186.58   69.70  105.62   18.85    0.00    0.00    0.00    0.00    1.74     0.00    0.00    0.00    0.00
   10  133.11    9.68   12.63    6.36   13.61    0.00  216.60   64.90   91.32   31.16    0.01    0.01    0.00    0.02    0.46     0.02    0.01    0.00    0.00
   11   79.15    3.95    6.59    6.74    4.60    0.00  228.64   51.84   76.11   21.32    0.00    0.00    0.00    0.05    0.22     0.00    0.01    0.00    0.00
   12  308.94   65.34   34.18   22.61   93.92    0.00  298.43   27.49   35.73  121.72    0.11    0.02    0.03    1.03    0.13     0.15    0.15    0.01    0.00

 1990 1661.72  203.69  188.20  206.45  370.14    0.00  298.43  873.29 1237.04  703.45    0.28    0.20    0.23    4.05   28.81     0.52    0.47    0.06    0.00
1
    SWAT Jun 11 2014    VER 2012/Rev 627                                            

    General Input/Output section (file.cio):                                        
    1/30/2015 12:00:00 AM ARCGIS-SWAT interface AV                                  
                                                                                    
Annual Summary for Watershed in year    7 of simulation

UNIT                                    PERCO    TILE                           WATER     SED     NO3     NO3     NO3     NO3        N       P       P
TIME     PREC    SURQ    LATQ     GWQ    LATE       Q     SW       ET     PET   YIELD   YIELD    SURQ    LATQ    PERC    CROP  ORGANIC SOLUBLE ORGANIC TILENO3
         (mm)    (mm)    (mm)    (mm)    (mm)    (mm)    (mm)    (mm)    (mm)    (mm)    (mm)   ------------------(kg nutrient/ha)-------------------- (kg/ha)
    1   80.53    7.61   22.05   37.72   37.75    0.00  285.08   34.24   44.07   89.36    0.01    0.02    0.03    0.28    0.00     0.02    0.04    0.00    0.00
    2  188.20   47.36   24.38   27.33   69.91    0.00  284.50   40.43   53.46  108.55    0.10    0.02    0.06    1.09    0.00     0.20    0.14    0.02    0.00
    3  194.57   27.23   24.82   30.89   52.24    0.00  294.43   76.73  102.73   98.32    0.04    0.02    0.05    0.76    0.02     0.12    0.07    0.01    0.00
    4  158.19   14.13   19.61   26.69   41.94    0.00  284.83   92.68  122.97   78.61    0.02    0.05    0.03    1.00    3.55     0.08    0.05    0.01    0.00
    5  188.24   28.69   20.44   26.55   46.20    0.00  256.75  119.15  147.01   85.09    0.03    0.08    0.02    0.95   13.60     0.11    0.06    0.01    0.00
    6  132.16    9.45   13.90   18.47    9.94    0.00  254.94  103.98  128.56   55.32    0.01    0.03    0.01    0.02    5.43     0.03    0.03    0.00    0.00
    7  104.25    6.24    8.43   11.45    4.10    0.00  230.40  113.00  148.77   32.87    0.00    0.01    0.00    0.00    2.30     0.01    0.01    0.00    0.00
    8  106.49    6.26    9.90    8.70    9.49    0.00  222.26   90.28  127.25   30.77    0.01    0.00    0.00    0.00    1.36     0.01    0.01    0.00    0.00
    9   70.72    3.79    6.15    6.80    2.22    0.00  211.61   71.46  111.63   21.62    0.00    0.00    0.00    0.02    1.44     0.00    0.00    0.00    0.00
   10   42.60    1.68    3.55    5.92    1.03    0.00  192.40   57.16  101.84   14.86    0.00    0.00    0.00    0.00    0.50     0.00    0.00    0.00    0.00
   11  103.59    7.18    7.00    5.11    4.27    0.00  239.30   35.49   59.08   20.99    0.01    0.00    0.00    0.07    0.15     0.01    0.01    0.00    0.00
   12  259.48   50.62   36.47   28.36   84.65    0.00  287.04   31.62   38.68  122.99    0.09    0.01    0.02    0.99    0.05     0.13    0.15    0.01    0.00

 1991 1629.02  210.25  196.69  233.99  363.73    0.00  287.04  866.22 1186.04  759.35    0.34    0.24    0.24    5.18   28.42     0.73    0.57    0.08    0.00
1
    SWAT Jun 11 2014    VER 2012/Rev 627                                            

    General Input/Output section (file.cio):                                        
    1/30/2015 12:00:00 AM ARCGIS-SWAT interface AV                                  
                                                                                    
Annual Summary for Watershed in year    8 of simulation

UNIT                                    PERCO    TILE                           WATER     SED     NO3     NO3     NO3     NO3        N       P       P
TIME     PREC    SURQ    LATQ     GWQ    LATE       Q     SW       ET     PET   YIELD   YIELD    SURQ    LATQ    PERC    CROP  ORGANIC SOLUBLE ORGANIC TILENO3
         (mm)    (mm)    (mm)    (mm)    (mm)    (mm)    (mm)    (mm)    (mm)    (mm)    (mm)   ------------------(kg nutrient/ha)-------------------- (kg/ha)
    1   88.50    8.23   16.85   26.70   37.44    0.00  279.68   35.04   45.34   65.04    0.01    0.01    0.02    0.32    0.00     0.02    0.02    0.00    0.00
    2  102.25    8.93   10.76   15.03   27.01    0.00  289.15   42.49   61.27   42.26    0.01    0.01    0.03    0.41    0.00     0.03    0.01    0.00    0.00
    3  125.49   12.65   15.60   18.84   30.30    0.00  283.59   73.08   98.64   58.34    0.02    0.02    0.04    0.48    0.02     0.06    0.04    0.01    0.00
    4   71.50    3.74    6.85   12.68    6.04    0.00  251.60   89.93  138.48   32.33    0.01    0.01    0.01    0.08    2.76     0.02    0.01    0.00    0.00
    5   88.73    7.49    6.09    8.86    5.32    0.00  231.92   90.94  156.99   28.19    0.01    0.05    0.01    0.04   10.45     0.05    0.01    0.00    0.00
    6  156.29   12.08   14.50    9.65   18.41    0.00  243.61   99.06  124.29   42.20    0.02    0.04    0.01    0.14    9.77     0.07    0.02    0.01    0.00
    7  139.15    7.02   11.59   11.91   14.73    0.00  243.20  106.35  130.95   37.64    0.01    0.00    0.01    0.03    2.97     0.02    0.01    0.00    0.00
    8  142.94   10.52   11.24    8.59   14.47    0.00  257.46   90.86  113.38   34.21    0.01    0.00    0.00    0.01    1.13     0.02    0.01    0.00    0.00
    9  120.07    8.17   12.42   11.64   20.35    0.00  256.98   80.18   99.66   39.19    0.01    0.01    0.00    0.05    1.18     0.01    0.02    0.00    0.00
   10   72.07    5.63    8.42   10.58   10.59    0.00  236.41   70.14   91.27   31.51    0.00    0.00    0.00    0.02    1.01     0.01    0.01    0.00    0.00
   11  162.68   12.27   19.87   15.07   45.84    0.00  273.97   41.42   48.02   54.04    0.01    0.00    0.00    0.20    0.26     0.02    0.02    0.00    0.00
   12  139.59   15.02   22.97   21.01   54.78    0.00  286.77   30.26   36.64   68.23    0.02    0.01    0.01    0.28    0.03     0.03    0.03    0.00    0.00

 1992 1409.26  111.76  157.18  170.56  285.28    0.00  286.77  849.75 1144.95  533.17    0.14    0.17    0.15    2.06   29.58     0.35    0.22    0.05    0.00
1
    SWAT Jun 11 2014    VER 2012/Rev 627                                            

    General Input/Output section (file.cio):                                        
    1/30/2015 12:00:00 AM ARCGIS-SWAT interface AV                                  
                                                                                    
Annual Summary for Watershed in year    9 of simulation

UNIT                                    PERCO    TILE                           WATER     SED     NO3     NO3     NO3     NO3        N       P       P
TIME     PREC    SURQ    LATQ     GWQ    LATE       Q     SW       ET     PET   YIELD   YIELD    SURQ    LATQ    PERC    CROP  ORGANIC SOLUBLE ORGANIC TILENO3
         (mm)    (mm)    (mm)    (mm)    (mm)    (mm)    (mm)    (mm)    (mm)    (mm)    (mm)   ------------------(kg nutrient/ha)-------------------- (kg/ha)
    1  113.59    9.46   22.33   29.36   53.74    0.00  284.13   30.79   39.58   76.87    0.01    0.02    0.03    0.48    0.00     0.02    0.02    0.00    0.00
    2   83.56    7.83   10.39   18.26   19.99    0.00  287.44   38.07   54.43   48.84    0.01    0.02    0.03    0.30    0.00     0.02    0.02    0.00    0.00
    3  164.63   21.70   22.45   23.80   58.62    0.00  290.01   58.69   75.23   80.55    0.04    0.02    0.07    1.30    0.01     0.12    0.05    0.01    0.00
    4  105.09    8.56   12.44   20.14   17.72    0.00  260.04   99.63  139.01   56.98    0.01    0.02    0.03    0.33    0.79     0.06    0.02    0.00    0.00
    5  118.93   10.03    8.78   15.59   12.29    0.00  241.94  106.93  155.21   45.15    0.02    0.04    0.01    0.29   11.70     0.06    0.03    0.00    0.00
    6   72.24    2.71    4.67    9.41    2.00    0.00  212.25   95.18  143.81   23.51    0.00    0.03    0.01    0.01   10.82     0.01    0.00    0.00    0.00
    7   56.85    2.31    3.98    6.92    0.77    0.00  167.56   97.89  162.55   17.34    0.00    0.00    0.00    0.00    2.36     0.00    0.00    0.00    0.00
    8  109.44    5.87    7.33    5.88    2.52    0.00  172.54   89.41  128.32   21.61    0.01    0.00    0.00    0.01    1.44     0.01    0.01    0.00    0.00
    9  107.60    4.24    6.75    5.00    1.69    0.00  197.67   68.89  102.06   17.81    0.00    0.00    0.00    0.03    1.73     0.01    0.00    0.00    0.00
   10   53.12    1.72    4.22    4.54    0.58    0.00  191.50   54.23   87.13   12.01    0.00    0.00    0.00    0.00    0.52     0.00    0.00    0.00    0.00
   11   93.90    6.67    7.83    4.65    5.80    0.00  218.88   44.24   61.89   19.88    0.00    0.00    0.01    0.13    0.19     0.01    0.01    0.00    0.00
   12  163.85   18.97   18.84   11.86   36.77    0.00  273.56   28.66   35.46   52.34    0.03    0.01    0.02    0.63    0.01     0.04    0.05    0.01    0.00

 1993 1242.80  100.05  130.01  155.41  212.49    0.00  273.56  812.61 1184.68  472.89    0.13    0.18    0.22    3.50   29.58     0.35    0.21    0.04    0.00
1
    SWAT Jun 11 2014    VER 2012/Rev 627                                            

    General Input/Output section (file.cio):                                        
    1/30/2015 12:00:00 AM ARCGIS-SWAT interface AV                                  
                                                                                    
Annual Summary for Watershed in year   10 of simulation

UNIT                                    PERCO    TILE                           WATER     SED     NO3     NO3     NO3     NO3        N       P       P
TIME     PREC    SURQ    LATQ     GWQ    LATE       Q     SW       ET     PET   YIELD   YIELD    SURQ    LATQ    PERC    CROP  ORGANIC SOLUBLE ORGANIC TILENO3
         (mm)    (mm)    (mm)    (mm)    (mm)    (mm)    (mm)    (mm)    (mm)    (mm)    (mm)   ------------------(kg nutrient/ha)-------------------- (kg/ha)
    1  164.88   33.86   21.01   21.07   66.10    0.00  288.75   24.46   31.10   80.40    0.08    0.02    0.03    0.95    0.00     0.10    0.08    0.01    0.00
    2  195.44   42.30   30.92   33.40   75.94    0.00  287.40   43.21   57.30  120.51    0.11    0.02    0.05    1.15    0.01     0.17    0.12    0.01    0.00
    3  258.96   57.52   33.02   35.21   82.13    0.00  299.45   66.41   89.44  138.42    0.29    0.02    0.05    1.13    0.01     0.33    0.15    0.02    0.00
    4  149.99   22.54   25.10   33.06   43.45    0.00  263.74   99.85  143.08  109.56    0.11    0.03    0.03    0.46    2.19     0.19    0.09    0.01    0.00
    5  105.69    6.84    9.45   17.73    8.03    0.00  242.07  105.97  156.98   49.93    0.01    0.05    0.01    0.10   10.26     0.03    0.01    0.00    0.00
    6  179.88   15.09   14.64   13.75   23.23    0.00  267.97   97.47  128.21   50.29    0.03    0.05    0.01    0.19   10.25     0.05    0.02    0.01    0.00
    7  164.46    9.60   20.14   16.80   35.64    0.00  263.36  103.25  122.39   56.62    0.02    0.01    0.01    0.08    2.37     0.03    0.02    0.01    0.00
    8  117.18   14.68   14.61   15.08   16.01    0.00  238.50  100.70  130.12   53.32    0.02    0.00    0.00    0.00    1.26     0.04    0.03    0.00    0.00
    9   84.61    3.49    6.84   10.59    4.24    0.00  232.83   77.62  102.07   29.61    0.00    0.00    0.00    0.02    1.67     0.01    0.01    0.00    0.00
   10  109.50    5.73    9.82   11.70   15.50    0.00  241.62   68.92   89.74   33.46    0.00    0.00    0.00    0.12    0.69     0.01    0.01    0.00    0.00
   11   97.16    7.12    6.36    9.42   10.32    0.00  261.66   50.11   67.55   26.52    0.00    0.00    0.00    0.12    0.21     0.01    0.01    0.00    0.00
   12   82.61    6.66   13.03   16.33   26.63    0.00  259.98   38.78   50.99   43.39    0.00    0.00    0.01    0.21    0.10     0.01    0.02    0.00    0.00

 1994 1710.34  225.42  204.93  234.14  407.21    0.00  259.98  876.73 1168.98  792.03    0.68    0.22    0.21    4.54   29.02     0.97    0.55    0.08    0.00
1
    SWAT Jun 11 2014    VER 2012/Rev 627                                            

    General Input/Output section (file.cio):                                        
    1/30/2015 12:00:00 AM ARCGIS-SWAT interface AV                                  
                                                                                    
Annual Summary for Watershed in year   11 of simulation

UNIT                                    PERCO    TILE                           WATER     SED     NO3     NO3     NO3     NO3        N       P       P
TIME     PREC    SURQ    LATQ     GWQ    LATE       Q     SW       ET     PET   YIELD   YIELD    SURQ    LATQ    PERC    CROP  ORGANIC SOLUBLE ORGANIC TILENO3
         (mm)    (mm)    (mm)    (mm)    (mm)    (mm)    (mm)    (mm)    (mm)    (mm)    (mm)   ------------------(kg nutrient/ha)-------------------- (kg/ha)
    1  155.49   21.05   19.65   20.37   51.03    0.00  285.89   31.82   41.09   68.29    0.03    0.03    0.04    0.62    0.00     0.05    0.05    0.01    0.00
    2  115.95   27.31   15.12   18.80   38.10    0.00  281.93   39.71   53.76   70.61    0.07    0.02    0.04    0.66    0.00     0.13    0.07    0.01    0.00
    3  116.22   16.19   18.81   23.76   41.58    0.00  251.79   70.67  111.28   74.05    0.03    0.02    0.05    0.83    0.00     0.07    0.05    0.01    0.00
    4   84.95    5.70    6.08   13.15    6.14    0.00  244.06   75.57  140.19   35.08    0.01    0.01    0.01    0.16    2.44     0.02    0.01    0.00    0.00
    5  137.37   11.04   11.53   12.23   10.53    0.00  231.37  117.27  158.93   41.60    0.01    0.05    0.02    0.22   12.06     0.04    0.02    0.01    0.00
    6  124.48    5.99    8.43    8.36    6.19    0.00  231.12  105.21  135.11   28.20    0.01    0.03    0.01    0.02    9.08     0.01    0.01    0.00    0.00
    7   87.98    3.72    5.98    6.70    3.16    0.00  208.87   99.07  144.88   20.82    0.00    0.00    0.00    0.00    2.59     0.01    0.00    0.00    0.00
    8  118.43    9.53    9.77    6.81    9.88    0.00  204.94   93.50  128.72   29.20    0.01    0.00    0.00    0.00    1.39     0.01    0.01    0.00    0.00
    9   98.07    4.83    8.03    6.47    6.58    0.00  218.44   66.10  100.52   23.06    0.00    0.00    0.00    0.04    1.66     0.01    0.01    0.00    0.00
   10  147.84   19.77   14.85   11.76   23.48    0.00  239.35   66.96   95.35   51.33    0.03    0.01    0.01    0.18    0.49     0.04    0.05    0.01    0.00
   11  152.84   15.44   20.55   18.42   42.74    0.00  267.56   42.37   52.41   61.48    0.02    0.01    0.01    0.34    0.09     0.02    0.03    0.00    0.00
   12   79.90    5.47   11.98   15.54   24.86    0.00  274.62   30.14   38.76   41.39    0.00    0.00    0.01    0.21    0.08     0.01    0.01    0.00    0.00

 1995 1419.54  146.03  150.78  162.38  264.26    0.00  274.62  838.39 1201.01  545.10    0.21    0.19    0.19    3.29   29.88     0.43    0.33    0.05    0.00
1
    SWAT Jun 11 2014    VER 2012/Rev 627                                            

    General Input/Output section (file.cio):                                        
    1/30/2015 12:00:00 AM ARCGIS-SWAT interface AV                                  
                                                                                    
Annual Summary for Watershed in year   12 of simulation

UNIT                                    PERCO    TILE                           WATER     SED     NO3     NO3     NO3     NO3        N       P       P
TIME     PREC    SURQ    LATQ     GWQ    LATE       Q     SW       ET     PET   YIELD   YIELD    SURQ    LATQ    PERC    CROP  ORGANIC SOLUBLE ORGANIC TILENO3
         (mm)    (mm)    (mm)    (mm)    (mm)    (mm)    (mm)    (mm)    (mm)    (mm)    (mm)   ------------------(kg nutrient/ha)-------------------- (kg/ha)
    1  192.71   34.50   27.14   29.00   79.74    0.00  290.94   28.35   35.66   98.64    0.07    0.03    0.04    0.91    0.00     0.09    0.08    0.01    0.00
    2   87.63   19.41   12.27   22.67   28.67    0.00  278.59   41.96   59.07   69.81    0.04    0.02    0.02    0.28    0.01     0.08    0.06    0.01    0.00
    3  159.63   17.84   18.87   22.53   45.78    0.00  286.50   65.40   85.58   72.74    0.02    0.02    0.04    0.80    0.01     0.06    0.04    0.01    0.00
    4  111.99    9.49   11.93   18.58   22.44    0.00  267.12   88.54  123.70   52.00    0.02    0.01    0.02    0.42    0.49     0.06    0.02    0.01    0.00
    5  135.62   11.60   12.14   14.40   11.22    0.00  253.09  115.25  164.90   45.85    0.01    0.06    0.02    0.19   11.61     0.04    0.02    0.00    0.00
    6  107.32    6.75   11.35   11.59   14.62    0.00  222.78  107.40  140.06   38.38    0.01    0.02    0.01    0.03    9.86     0.03    0.02    0.00    0.00
    7  136.96    7.09    7.90    8.17    2.48    0.00  241.74   99.74  140.62   28.14    0.01    0.00    0.00    0.00    2.20     0.01    0.01    0.00    0.00
    8  123.17   11.32   13.28    9.35   15.04    0.00  226.75  100.68  128.86   39.02    0.04    0.00    0.00    0.01    1.57     0.03    0.02    0.00    0.00
    9  178.81   16.26   13.27   10.29   25.48    0.00  267.67   77.39   95.18   42.24    0.01    0.01    0.00    0.17    1.81     0.03    0.02    0.01    0.00
   10   69.60    4.11    9.21   12.03   10.33    0.00  243.89   72.56   97.06   33.91    0.00    0.00    0.00    0.08    0.57     0.01    0.01    0.00    0.00
   11  144.25   13.89   17.62   15.38   37.73    0.00  274.31   40.97   48.05   53.43    0.01    0.01    0.00    0.34    0.12     0.02    0.03    0.00    0.00
   12  181.39   28.48   27.35   28.84   71.24    0.00  289.68   33.98   40.30   94.90    0.02    0.01    0.01    0.62    0.27     0.04    0.08    0.01    0.00

 1996 1629.08  180.74  182.32  202.82  364.75    0.00  289.68  872.23 1159.05  669.04    0.25    0.21    0.18    3.85   28.52     0.48    0.40    0.06    0.00
1
    SWAT Jun 11 2014    VER 2012/Rev 627                                            

    General Input/Output section (file.cio):                                        
    1/30/2015 12:00:00 AM ARCGIS-SWAT interface AV                                  
                                                                                    
Annual Summary for Watershed in year   13 of simulation

UNIT                                    PERCO    TILE                           WATER     SED     NO3     NO3     NO3     NO3        N       P       P
TIME     PREC    SURQ    LATQ     GWQ    LATE       Q     SW       ET     PET   YIELD   YIELD    SURQ    LATQ    PERC    CROP  ORGANIC SOLUBLE ORGANIC TILENO3
         (mm)    (mm)    (mm)    (mm)    (mm)    (mm)    (mm)    (mm)    (mm)    (mm)    (mm)   ------------------(kg nutrient/ha)-------------------- (kg/ha)
    1  142.11   21.72   22.91   29.71   63.24    0.00  290.09   31.13   40.23   86.40    0.03    0.04    0.03    0.61    0.00     0.05    0.05    0.01    0.00
    2  127.33   13.46   17.00   26.61   41.46    0.00  298.52   44.35   57.27   69.75    0.01    0.02    0.03    0.53    0.01     0.03    0.03    0.00    0.00
    3  212.37   43.23   31.98   37.21   71.86    0.00  283.38   79.10  102.26  131.83    0.10    0.03    0.06    1.05    0.02     0.20    0.13    0.02    0.00
    4  116.96    8.03   11.63   17.90   14.54    0.00  281.03   85.52  118.83   51.66    0.01    0.01    0.02    0.16    1.23     0.03    0.01    0.00    0.00
    5  145.42   13.14   13.87   16.18   24.58    0.00  281.24   92.51  129.47   53.19    0.03    0.05    0.02    0.38    6.78     0.07    0.03    0.01    0.00
    6  194.39   17.47   25.43   26.14   59.06    0.00  276.68   95.10  108.43   81.32    0.04    0.05    0.03    1.04   12.19     0.10    0.05    0.01    0.00
    7   71.02    5.70    9.11   16.89    8.48    0.00  219.06  110.93  158.94   43.13    0.01    0.01    0.01    0.03    4.63     0.03    0.01    0.00    0.00
    8   71.95    2.87    5.31   10.47    2.21    0.00  197.43   85.50  129.58   25.08    0.00    0.00    0.00    0.00    1.77     0.00    0.00    0.00    0.00
    9  129.65    9.04    7.91    7.71    5.59    0.00  233.70   68.60  108.91   27.67    0.01    0.01    0.00    0.05    1.13     0.01    0.01    0.00    0.00
   10  101.78    7.81   10.05    8.31   11.81    0.00  239.37   66.48   96.05   29.83    0.01    0.00    0.00    0.19    0.97     0.02    0.01    0.00    0.00
   11   76.87    2.49    9.15   11.31   12.57    0.00  251.83   40.63   48.11   27.16    0.00    0.00    0.00    0.10    0.18     0.01    0.00    0.00    0.00
   12   98.22    4.66   10.35   12.48   22.00    0.00  271.53   33.11   40.99   31.79    0.00    0.00    0.01    0.26    0.00     0.01    0.01    0.00    0.00

 1997 1488.07  149.63  174.70  220.92  337.41    0.00  271.53  832.97 1139.07  658.80    0.25    0.23    0.21    4.40   28.93     0.56    0.36    0.06    0.00
1
    SWAT Jun 11 2014    VER 2012/Rev 627                                            

    General Input/Output section (file.cio):                                        
    1/30/2015 12:00:00 AM ARCGIS-SWAT interface AV                                  
                                                                                    
Annual Summary for Watershed in year   14 of simulation

UNIT                                    PERCO    TILE                           WATER     SED     NO3     NO3     NO3     NO3        N       P       P
TIME     PREC    SURQ    LATQ     GWQ    LATE       Q     SW       ET     PET   YIELD   YIELD    SURQ    LATQ    PERC    CROP  ORGANIC SOLUBLE ORGANIC TILENO3
         (mm)    (mm)    (mm)    (mm)    (mm)    (mm)    (mm)    (mm)    (mm)    (mm)    (mm)   ------------------(kg nutrient/ha)-------------------- (kg/ha)
    1  176.12   26.65   29.28   27.96   73.27    0.00  285.45   32.98   41.30   91.21    0.04    0.03    0.04    0.87    0.00     0.08    0.07    0.01    0.00
    2  143.30   19.75   21.62   26.63   55.37    0.00  286.98   43.99   55.73   82.23    0.03    0.03    0.04    0.84    0.00     0.08    0.05    0.01    0.00
    3  136.48   13.70   21.78   30.13   52.71    0.00  267.05   68.23   93.47   83.19    0.03    0.01    0.05    0.99    0.02     0.07    0.04    0.01    0.00
    4  224.22   33.63   25.20   25.43   54.70    0.00  282.23   89.68  113.83   97.48    0.16    0.04    0.05    1.09    2.09     0.32    0.08    0.02    0.00
    5  116.26   12.19   17.24   21.27   23.30    0.00  233.16  117.25  173.93   69.21    0.03    0.06    0.02    0.42   11.83     0.14    0.04    0.01    0.00
    6  180.73   21.45   17.08   19.06   24.29    0.00  240.62  109.92  137.40   68.73    0.05    0.05    0.03    0.30   10.89     0.13    0.06    0.01    0.00
    7  142.42   13.04    9.46   12.76   11.74    0.00  248.98   98.01  131.82   42.49    0.01    0.01    0.01    0.04    2.05     0.04    0.02    0.00    0.00
    8   75.40    4.44    9.38   11.85    7.62    0.00  209.95   97.77  136.44   34.07    0.00    0.00    0.00    0.01    1.67     0.01    0.01    0.00    0.00
    9   42.02    2.28    3.06    7.74    0.47    0.00  186.51   62.18  125.87   16.85    0.00    0.00    0.00    0.00    1.08     0.00    0.00    0.00    0.00
   10   53.44    2.62    4.30    6.27    0.77    0.00  181.15   52.66  101.54   15.77    0.00    0.00    0.00    0.02    0.67     0.00    0.00    0.00    0.00
   11   69.18    2.41    4.66    5.36    2.64    0.00  202.62   37.47   63.18   14.08    0.00    0.00    0.00    0.03    0.09     0.00    0.00    0.00    0.00
   12  183.27   16.82   19.60   12.47   38.49    0.00  274.39   27.53   38.95   50.49    0.03    0.01    0.02    0.79    0.10     0.05    0.04    0.01    0.00

 1998 1542.83  168.99  182.66  206.93  345.37    0.00  274.39  837.67 1213.45  665.78    0.38    0.24    0.28    5.40   30.50     0.94    0.41    0.07    0.00
1
    SWAT Jun 11 2014    VER 2012/Rev 627                                            

    General Input/Output section (file.cio):                                        
    1/30/2015 12:00:00 AM ARCGIS-SWAT interface AV                                  
                                                                                    
Annual Summary for Watershed in year   15 of simulation

UNIT                                    PERCO    TILE                           WATER     SED     NO3     NO3     NO3     NO3        N       P       P
TIME     PREC    SURQ    LATQ     GWQ    LATE       Q     SW       ET     PET   YIELD   YIELD    SURQ    LATQ    PERC    CROP  ORGANIC SOLUBLE ORGANIC TILENO3
         (mm)    (mm)    (mm)    (mm)    (mm)    (mm)    (mm)    (mm)    (mm)    (mm)    (mm)   ------------------(kg nutrient/ha)-------------------- (kg/ha)
    1  232.58   50.59   30.58   32.44   89.84    0.00  293.00   36.14   44.58  118.03    0.10    0.03    0.04    1.51    0.00     0.25    0.14    0.02    0.00
    2  103.19    8.46   17.01   27.58   32.90    0.00  294.52   45.23   56.55   68.36    0.01    0.01    0.02    0.39    0.00     0.04    0.03    0.00    0.00
    3  118.48   11.52   18.48   27.48   42.17    0.00  273.41   68.77   88.15   73.23    0.03    0.01    0.03    0.63    0.00     0.08    0.03    0.01    0.00
    4  101.91    5.38    7.42   14.43    6.08    0.00  264.92   91.99  139.08   37.23    0.01    0.03    0.01    0.07    3.52     0.02    0.01    0.00    0.00
    5  121.60   11.97   12.68   14.11   19.55    0.00  230.20  113.76  159.91   46.82    0.03    0.06    0.02    0.36   13.40     0.09    0.03    0.01    0.00
    6  161.07    9.97   10.33    9.95   13.13    0.00  263.73   89.67  129.73   34.63    0.02    0.02    0.01    0.10    7.75     0.03    0.01    0.01    0.00
    7  111.80   10.06   15.55   13.43   20.06    0.00  216.66  118.03  154.54   46.10    0.06    0.00    0.00    0.01    2.10     0.05    0.02    0.01    0.00
    8   31.90    1.44    3.19    8.49    1.37    0.00  169.66   77.55  143.26   19.25    0.00    0.00    0.00    0.00    1.51     0.00    0.00    0.00    0.00
    9   40.97    1.43    1.99    6.10    0.60    0.00  160.69   47.70  113.98   12.99    0.00    0.00    0.00    0.00    1.26     0.00    0.00    0.00    0.00
   10   62.60    2.91    5.08    5.17    0.98    0.00  160.85   54.62   98.78   15.76    0.00    0.00    0.00    0.00    0.45     0.00    0.00    0.00    0.00
   11  104.95    6.72    7.24    4.68    2.89    0.00  202.18   44.72   75.49   19.99    0.00    0.01    0.00    0.04    0.22     0.01    0.01    0.00    0.00
   12   70.16    3.18    7.53    5.27    5.83    0.00  222.77   32.77   44.59   18.68    0.00    0.00    0.01    0.14    0.01     0.01    0.01    0.00    0.00

 1999 1261.23  123.62  137.08  169.14  235.39    0.00  222.77  820.94 1248.66  511.08    0.27    0.17    0.16    3.26   30.25     0.60    0.28    0.05    0.00
1
    SWAT Jun 11 2014    VER 2012/Rev 627                                            

    General Input/Output section (file.cio):                                        
    1/30/2015 12:00:00 AM ARCGIS-SWAT interface AV                                  
                                                                                    
Annual Summary for Watershed in year   16 of simulation

UNIT                                    PERCO    TILE                           WATER     SED     NO3     NO3     NO3     NO3        N       P       P
TIME     PREC    SURQ    LATQ     GWQ    LATE       Q     SW       ET     PET   YIELD   YIELD    SURQ    LATQ    PERC    CROP  ORGANIC SOLUBLE ORGANIC TILENO3
         (mm)    (mm)    (mm)    (mm)    (mm)    (mm)    (mm)    (mm)    (mm)    (mm)    (mm)   ------------------(kg nutrient/ha)-------------------- (kg/ha)
    1  121.03    7.38   10.44    8.30   18.59    0.00  258.13   28.06   39.74   28.89    0.02    0.01    0.02    0.39    0.00     0.03    0.01    0.00    0.00
    2   89.79   10.79   11.33   11.52   24.49    0.00  266.98   50.98   68.66   37.86    0.01    0.01    0.03    0.49    0.01     0.04    0.02    0.00    0.00
    3  119.75   11.45   12.16   13.69   23.89    0.00  263.77   74.93  103.22   43.88    0.03    0.01    0.03    0.63    0.03     0.10    0.03    0.01    0.00
    4  184.01   19.86   20.66   20.85   45.74    0.00  268.66   90.02  113.73   70.89    0.09    0.07    0.04    1.20    2.18     0.23    0.05    0.01    0.00
    5   90.81    5.45    7.37   11.84    5.47    0.00  238.81  104.11  169.37   33.19    0.01    0.07    0.02    0.07   12.71     0.02    0.01    0.00    0.00
    6  125.63    5.77    8.80    7.95    8.20    0.00  245.58   96.27  135.27   27.62    0.01    0.01    0.01    0.05    9.76     0.01    0.01    0.00    0.00
    7   81.51    4.00    7.89    7.38    5.21    0.00  207.54  106.22  151.66   24.15    0.00    0.00    0.00    0.00    2.39     0.01    0.01    0.00    0.00
    8   82.83    4.78    7.43    5.42    5.53    0.00  184.51   90.51  132.35   21.60    0.01    0.00    0.00    0.00    1.35     0.01    0.01    0.00    0.00
    9   93.33    3.88    5.76    4.15    3.90    0.00  203.39   60.31   98.52   17.06    0.00    0.00    0.00    0.01    1.69     0.01    0.00    0.00    0.00
   10    4.19    0.09    2.37    4.14    1.26    0.00  153.76   54.16  114.02    9.34    0.00    0.00    0.00    0.00    0.49     0.00    0.00    0.00    0.00
   11  148.59    8.73   12.16    5.90   13.17    0.00  228.80   34.62   54.72   28.76    0.02    0.01    0.01    0.27    0.10     0.03    0.01    0.00    0.00
   12   88.67    8.07   10.14   10.03   17.13    0.00  251.34   27.41   37.89   31.31    0.01    0.00    0.01    0.32    0.00     0.03    0.02    0.00    0.00

 2000 1230.12   90.25  116.52  111.18  172.58    0.00  251.34  817.60 1219.14  374.54    0.21    0.19    0.17    3.42   30.71     0.52    0.17    0.05    0.00
1
    SWAT Jun 11 2014    VER 2012/Rev 627                                            

    General Input/Output section (file.cio):                                        
    1/30/2015 12:00:00 AM ARCGIS-SWAT interface AV                                  
                                                                                    
Annual Summary for Watershed in year   17 of simulation

UNIT                                    PERCO    TILE                           WATER     SED     NO3     NO3     NO3     NO3        N       P       P
TIME     PREC    SURQ    LATQ     GWQ    LATE       Q     SW       ET     PET   YIELD   YIELD    SURQ    LATQ    PERC    CROP  ORGANIC SOLUBLE ORGANIC TILENO3
         (mm)    (mm)    (mm)    (mm)    (mm)    (mm)    (mm)    (mm)    (mm)    (mm)    (mm)   ------------------(kg nutrient/ha)-------------------- (kg/ha)
    1  112.09   14.28   12.98   12.87   34.59    0.00  268.34   32.53   43.37   43.87    0.04    0.01    0.02    0.53    0.00     0.06    0.03    0.01    0.00
    2  159.70   21.24   22.23   22.35   59.16    0.00  278.01   41.57   55.12   71.69    0.04    0.01    0.04    1.10    0.00     0.09    0.06    0.01    0.00
    3  111.79    9.78   15.61   23.16   28.92    0.00  275.47   62.35   83.53   60.81    0.03    0.01    0.03    0.51    0.00     0.07    0.03    0.01    0.00
    4   85.04    6.14   10.25   15.11   16.64    0.00  236.76   93.22  145.97   41.69    0.01    0.01    0.02    0.30    1.96     0.04    0.01    0.00    0.00
    5  125.68    7.51    7.45   10.08    7.07    0.00  244.44   95.19  152.74   31.03    0.01    0.07    0.01    0.15   13.44     0.03    0.01    0.00    0.00
    6  142.73    7.39   12.20   11.66   18.55    0.00  248.05  100.92  125.01   36.72    0.01    0.02    0.02    0.37    9.90     0.04    0.01    0.00    0.00
    7  152.82   13.24   13.77   11.30   16.67    0.00  252.14  103.88  132.77   41.49    0.04    0.00    0.01    0.07    2.13     0.05    0.02    0.01    0.00
    8  122.99   11.51   12.74   12.27   18.66    0.00  236.28   98.55  123.93   43.83    0.02    0.01    0.00    0.05    1.49     0.04    0.03    0.00    0.00
    9  103.98    6.09    9.59    9.96   11.52    0.00  234.16   79.54  102.29   31.40    0.00    0.00    0.00    0.08    1.83     0.01    0.01    0.00    0.00
   10   85.09   11.13    7.83    8.83   11.74    0.00  223.41   64.92   94.59   31.95    0.01    0.00    0.00    0.12    0.35     0.02    0.03    0.00    0.00
   11  104.30   19.20    5.13    6.51   12.51    0.00  245.33   39.61   75.04   24.52    0.01    0.00    0.00    0.25    0.23     0.03    0.02    0.00    0.00
   12  132.65   14.75   19.84   22.99   45.08    0.00  262.18   35.75   46.51   72.13    0.01    0.01    0.01    0.55    0.09     0.06    0.05    0.01    0.00

 2001 1438.86  142.27  149.62  167.07  281.10    0.00  262.18  848.04 1180.87  531.14    0.24    0.16    0.17    4.08   31.43     0.53    0.30    0.06    0.00
1
    SWAT Jun 11 2014    VER 2012/Rev 627                                            

    General Input/Output section (file.cio):                                        
    1/30/2015 12:00:00 AM ARCGIS-SWAT interface AV                                  
                                                                                    
Annual Summary for Watershed in year   18 of simulation

UNIT                                    PERCO    TILE                           WATER     SED     NO3     NO3     NO3     NO3        N       P       P
TIME     PREC    SURQ    LATQ     GWQ    LATE       Q     SW       ET     PET   YIELD   YIELD    SURQ    LATQ    PERC    CROP  ORGANIC SOLUBLE ORGANIC TILENO3
         (mm)    (mm)    (mm)    (mm)    (mm)    (mm)    (mm)    (mm)    (mm)    (mm)    (mm)   ------------------(kg nutrient/ha)-------------------- (kg/ha)
    1  179.08   35.80   23.19   21.26   62.90    0.00  277.35   34.85   47.11   84.21    0.13    0.03    0.04    0.83    0.00     0.11    0.10    0.01    0.00
    2   52.16    3.20    9.85   21.04   13.05    0.00  265.67   42.40   59.29   47.23    0.00    0.01    0.02    0.15    0.00     0.01    0.03    0.00    0.00
    3  205.36   33.79   18.43   18.61   50.34    0.00  291.20   68.54   91.50   74.68    0.11    0.02    0.05    1.06    0.03     0.17    0.09    0.01    0.00
    4   57.75    3.90   10.54   18.12   10.45    0.00  236.91   94.50  151.62   47.36    0.01    0.03    0.03    0.18    3.50     0.04    0.03    0.00    0.00
    5  145.51   12.36   12.82   14.16   17.10    0.00  226.99  112.95  153.76   47.18    0.02    0.06    0.02    0.28   12.46     0.06    0.02    0.01    0.00
    6   69.15    2.39    3.94    7.97    1.06    0.00  206.73   84.37  137.71   19.29    0.00    0.03    0.01    0.00    8.64     0.00    0.00    0.00    0.00
    7  110.65    4.74    7.27    6.21    3.66    0.00  200.98  101.62  137.59   21.30    0.00    0.00    0.00    0.00    2.19     0.01    0.00    0.00    0.00
    8   77.90    2.55    5.27    4.82    0.71    0.00  187.35   84.84  132.96   15.05    0.00    0.00    0.00    0.00    1.61     0.00    0.00    0.00    0.00
    9  183.75   18.35   14.03    5.00   18.10    0.00  247.62   65.46  103.72   35.36    0.02    0.01    0.01    0.21    1.70     0.03    0.02    0.01    0.00
   10  124.25    8.14   15.50   10.56   21.27    0.00  265.31   62.90   79.04   40.75    0.01    0.01    0.01    0.22    0.57     0.02    0.02    0.00    0.00
   11  128.01   12.95   22.45   18.64   45.21    0.00  270.10   41.88   51.97   60.65    0.02    0.00    0.02    0.49    0.07     0.03    0.03    0.00    0.00
   12  160.80   19.84   24.35   26.13   64.91    0.00  285.36   31.25   39.00   80.11    0.02    0.01    0.02    0.85    0.03     0.05    0.04    0.01    0.00

 2002 1494.37  158.00  167.63  172.51  308.75    0.00  285.36  825.57 1185.26  573.17    0.35    0.20    0.22    4.27   30.80     0.53    0.40    0.06    0.00
1
    SWAT Jun 11 2014    VER 2012/Rev 627                                            

    General Input/Output section (file.cio):                                        
    1/30/2015 12:00:00 AM ARCGIS-SWAT interface AV                                  
                                                                                    
Annual Summary for Watershed in year   19 of simulation

UNIT                                    PERCO    TILE                           WATER     SED     NO3     NO3     NO3     NO3        N       P       P
TIME     PREC    SURQ    LATQ     GWQ    LATE       Q     SW       ET     PET   YIELD   YIELD    SURQ    LATQ    PERC    CROP  ORGANIC SOLUBLE ORGANIC TILENO3
         (mm)    (mm)    (mm)    (mm)    (mm)    (mm)    (mm)    (mm)    (mm)    (mm)    (mm)   ------------------(kg nutrient/ha)-------------------- (kg/ha)
    1   68.96   10.34    8.31   20.00   16.81    0.00  293.20   27.74   37.05   50.41    0.02    0.03    0.01    0.19    0.00     0.04    0.02    0.00    0.00
    2  236.53   51.78   31.70   29.86  102.06    0.00  300.27   30.82   37.57  121.33    0.15    0.03    0.06    1.61    0.00     0.27    0.14    0.02    0.00
    3   74.82    4.97   14.14   28.44   15.45    0.00  270.82   77.19  109.20   70.21    0.01    0.01    0.02    0.14    0.03     0.03    0.03    0.00    0.00
    4  148.96   16.06   16.55   16.78   26.00    0.00  262.34   98.48  139.02   61.56    0.05    0.02    0.03    0.40    1.80     0.10    0.03    0.01    0.00
    5  259.48   45.01   30.76   29.18   72.04    0.00  257.82  111.76  136.41  120.06    0.23    0.10    0.05    1.83   13.91     0.44    0.14    0.02    0.00
    6  138.00   10.87   14.21   18.19   15.95    0.00  250.94  105.82  129.94   56.70    0.02    0.05    0.02    0.11    8.55     0.05    0.02    0.00    0.00
    7  170.47   14.65   15.81   16.12   23.15    0.00  259.32  107.82  131.92   57.48    0.03    0.01    0.01    0.04    2.30     0.06    0.02    0.01    0.00
    8  135.12   12.83   15.62   13.99   22.33    0.00  246.88   98.06  119.96   53.05    0.02    0.01    0.00    0.00    1.42     0.04    0.02    0.00    0.00
    9  147.18   17.89   12.63   12.09   19.82    0.00  259.41   82.56  106.04   50.69    0.02    0.01    0.00    0.05    1.72     0.03    0.04    0.01    0.00
   10   43.09    1.76    4.82   10.37    2.92    0.00  229.24   67.00   98.19   24.98    0.00    0.00    0.00    0.00    0.51     0.00    0.01    0.00    0.00
   11  153.64   16.61   13.98    9.86   23.08    0.00  275.27   48.52   66.21   43.90    0.01    0.01    0.01    0.20    0.19     0.03    0.03    0.00    0.00
   12  101.60    8.15   16.69   17.98   36.60    0.00  283.43   31.44   38.04   51.54    0.01    0.01    0.02    0.34    0.01     0.01    0.02    0.00    0.00

 2003 1677.86  210.93  195.22  222.87  376.20    0.00  283.43  887.21 1149.55  761.91    0.57    0.28    0.23    4.92   30.43     1.11    0.51    0.08    0.00
1
    SWAT Jun 11 2014    VER 2012/Rev 627                                            

    General Input/Output section (file.cio):                                        
    1/30/2015 12:00:00 AM ARCGIS-SWAT interface AV                                  
                                                                                    
Annual Summary for Watershed in year   20 of simulation

UNIT                                    PERCO    TILE                           WATER     SED     NO3     NO3     NO3     NO3        N       P       P
TIME     PREC    SURQ    LATQ     GWQ    LATE       Q     SW       ET     PET   YIELD   YIELD    SURQ    LATQ    PERC    CROP  ORGANIC SOLUBLE ORGANIC TILENO3
         (mm)    (mm)    (mm)    (mm)    (mm)    (mm)    (mm)    (mm)    (mm)    (mm)    (mm)   ------------------(kg nutrient/ha)-------------------- (kg/ha)
    1   88.64    9.02   13.12   18.62   31.64    0.00  281.98   35.52   46.85   50.64    0.01    0.02    0.02    0.44    0.00     0.02    0.02    0.00    0.00
    2  136.06   27.26   19.09   26.09   51.06    0.00  278.95   39.96   51.67   83.95    0.05    0.02    0.04    0.89    0.00     0.10    0.09    0.01    0.00
    3  121.27   13.64   13.58   22.02   29.67    0.00  266.75   76.15  109.40   61.13    0.02    0.01    0.03    0.57    0.04     0.05    0.03    0.00    0.00
    4  110.57   10.17    9.51   14.03   14.75    0.00  257.01   85.57  130.42   41.38    0.01    0.01    0.02    0.29    2.23     0.04    0.02    0.00    0.00
    5  106.34    7.07    8.28   11.98    7.75    0.00  236.49  105.23  149.70   34.65    0.01    0.07    0.02    0.12   13.60     0.02    0.01    0.00    0.00
    6  197.73   17.38   17.23   10.06   25.42    0.00  269.72  100.46  122.02   48.90    0.04    0.02    0.02    0.21    8.84     0.07    0.03    0.01    0.00
    7  140.46    8.66   15.18   17.84   23.65    0.00  251.00  114.45  136.86   50.08    0.02    0.00    0.01    0.17    2.31     0.02    0.02    0.00    0.00
    8  114.58    5.52    9.31   10.88   10.95    0.00  249.17   91.16  116.72   32.46    0.01    0.01    0.00    0.04    1.53     0.01    0.01    0.00    0.00
    9  180.66   37.04   20.11   13.47   34.16    0.00  253.47   83.54  106.71   74.63    0.07    0.01    0.01    0.24    2.03     0.08    0.08    0.01    0.00
   10  115.29   10.39   11.09   13.01   17.06    0.00  266.06   63.33   86.80   45.46    0.01    0.01    0.01    0.21    0.67     0.02    0.03    0.00    0.00
   11  166.74   19.84   20.34   17.85   49.24    0.00  284.40   53.59   66.22   65.06    0.03    0.01    0.01    0.66    0.22     0.03    0.04    0.01    0.00
   12  195.18   39.14   33.70   43.39   88.01    0.00  282.21   34.05   43.88  132.67    0.05    0.01    0.02    0.83    0.04     0.07    0.10    0.01    0.00

 2004 1673.53  205.13  190.55  219.25  383.37    0.00  282.21  883.01 1167.24  721.00    0.32    0.20    0.20    4.66   31.50     0.55    0.49    0.06    0.00
1
    SWAT Jun 11 2014    VER 2012/Rev 627                                            

    General Input/Output section (file.cio):                                        
    1/30/2015 12:00:00 AM ARCGIS-SWAT interface AV                                  
                                                                                    
Annual Summary for Watershed in year   21 of simulation

UNIT                                    PERCO    TILE                           WATER     SED     NO3     NO3     NO3     NO3        N       P       P
TIME     PREC    SURQ    LATQ     GWQ    LATE       Q     SW       ET     PET   YIELD   YIELD    SURQ    LATQ    PERC    CROP  ORGANIC SOLUBLE ORGANIC TILENO3
         (mm)    (mm)    (mm)    (mm)    (mm)    (mm)    (mm)    (mm)    (mm)    (mm)    (mm)   ------------------(kg nutrient/ha)-------------------- (kg/ha)
    1  102.00   11.97   14.76   31.20   35.58    0.00  285.62   35.46   49.73   73.74    0.01    0.02    0.02    0.41    0.00     0.02    0.03    0.00    0.00
    2  115.80    9.98   14.86   21.14   41.38    0.00  291.99   40.69   50.48   56.79    0.01    0.02    0.04    0.70    0.00     0.03    0.02    0.00    0.00
    3   97.59    8.49   11.57   19.16   17.75    0.00  284.10   69.16   89.87   50.50    0.01    0.01    0.03    0.35    0.00     0.03    0.02    0.00    0.00
    4  151.61   16.04   15.44   18.92   31.19    0.00  277.78   93.77  128.19   59.64    0.03    0.06    0.04    0.77    2.88     0.09    0.03    0.01    0.00
    5   53.52    3.35    6.31   12.43    4.17    0.00  217.13  105.46  172.66   32.40    0.01    0.04    0.01    0.07    9.96     0.02    0.01    0.00    0.00
    6  137.48    7.77   10.05    9.15   10.42    0.00  229.99   95.84  125.48   32.51    0.01    0.05    0.01    0.05   11.53     0.02    0.01    0.00    0.00
    7  171.80   14.43   16.28   11.20   22.61    0.00  242.53  105.06  126.26   47.80    0.04    0.01    0.01    0.03    2.55     0.06    0.02    0.01    0.00
    8  138.59   11.24    9.16    9.15    9.87    0.00  256.72   92.19  125.98   34.57    0.01    0.01    0.00    0.02    1.50     0.02    0.01    0.00    0.00
    9   64.47    3.78    7.22    7.62    5.70    0.00  227.64   80.79  121.49   26.81    0.00    0.01    0.00    0.05    1.98     0.01    0.01    0.00    0.00
   10   23.53    0.96    2.96    6.37    1.58    0.00  189.63   59.25  112.35   14.96    0.00    0.00    0.00    0.00    0.54     0.00    0.00    0.00    0.00
   11  109.09    5.36    6.53    5.23    4.15    0.00  241.71   37.45   71.98   19.54    0.00    0.01    0.00    0.10    0.22     0.01    0.00    0.00    0.00
   12  100.02    7.01   13.25   10.22   25.38    0.00  261.33   33.76   43.35   34.61    0.01    0.00    0.01    0.41    0.02     0.01    0.01    0.00    0.00

 2005 1265.49  100.37  128.40  161.78  209.80    0.00  261.33  848.87 1217.82  483.86    0.14    0.23    0.19    2.96   31.19     0.33    0.18    0.04    0.00
1
    SWAT Jun 11 2014    VER 2012/Rev 627                                            

    General Input/Output section (file.cio):                                        
    1/30/2015 12:00:00 AM ARCGIS-SWAT interface AV                                  
                                                                                    
Annual Summary for Watershed in year   22 of simulation

UNIT                                    PERCO    TILE                           WATER     SED     NO3     NO3     NO3     NO3        N       P       P
TIME     PREC    SURQ    LATQ     GWQ    LATE       Q     SW       ET     PET   YIELD   YIELD    SURQ    LATQ    PERC    CROP  ORGANIC SOLUBLE ORGANIC TILENO3
         (mm)    (mm)    (mm)    (mm)    (mm)    (mm)    (mm)    (mm)    (mm)    (mm)    (mm)   ------------------(kg nutrient/ha)-------------------- (kg/ha)
    1  160.45   20.39   21.29   18.90   54.69    0.00  282.25   37.46   48.62   65.68    0.02    0.02    0.04    1.00    0.00     0.06    0.06    0.01    0.00
    2   76.70    4.93   13.51   21.15   29.67    0.00  276.25   36.09   45.13   50.14    0.01    0.01    0.03    0.53    0.00     0.02    0.02    0.00    0.00
    3   71.53    5.13    6.50   13.60    7.26    0.00  255.46   75.01  113.30   34.15    0.01    0.01    0.01    0.14    0.02     0.02    0.01    0.00    0.00
    4  147.23   14.21   12.04   11.21   15.03    0.00  255.84  103.99  153.24   42.91    0.03    0.04    0.03    0.37    4.84     0.07    0.03    0.01    0.00
    5  111.29    5.15    9.25   10.64   11.26    0.00  230.98  112.28  145.58   31.93    0.01    0.03    0.01    0.22   10.87     0.03    0.01    0.00    0.00
    6   95.37    5.62    6.73    7.16    3.65    0.00  218.60   93.27  137.02   23.87    0.01    0.03    0.01    0.01    8.49     0.02    0.01    0.00    0.00
    7   98.19    4.51    6.57    5.69    2.79    0.00  203.58  100.71  142.66   20.67    0.00    0.00    0.00    0.00    2.53     0.01    0.00    0.00    0.00
    8  101.07    4.88    6.88    4.68    3.27    0.00  197.48   93.31  132.70   19.28    0.01    0.00    0.00    0.00    1.49     0.01    0.00    0.00    0.00
    9  139.54   13.87   12.36    5.92   14.09    0.00  224.57   70.04   98.44   34.65    0.04    0.01    0.00    0.03    1.52     0.04    0.02    0.01    0.00
   10  117.28    7.93   12.43    6.10   15.11    0.00  241.68   63.42   88.78   30.72    0.01    0.01    0.01    0.12    0.28     0.01    0.01    0.00    0.00
   11  105.90    8.97   14.44   10.92   24.53    0.00  252.01   47.43   59.88   40.34    0.01    0.00    0.01    0.35    0.20     0.02    0.02    0.00    0.00
   12   82.07    5.32    6.83    9.30   12.25    0.00  271.72   35.72   48.79   26.55    0.00    0.00    0.01    0.23    0.09     0.01    0.01    0.00    0.00

 2006 1306.63  100.93  128.83  125.26  193.61    0.00  271.72  868.73 1214.15  420.89    0.14    0.16    0.17    3.01   30.32     0.30    0.20    0.04    0.00
1
    SWAT Jun 11 2014    VER 2012/Rev 627                                            

    General Input/Output section (file.cio):                                        
    1/30/2015 12:00:00 AM ARCGIS-SWAT interface AV                                  
                                                                                    
Annual Summary for Watershed in year   23 of simulation

UNIT                                    PERCO    TILE                           WATER     SED     NO3     NO3     NO3     NO3        N       P       P
TIME     PREC    SURQ    LATQ     GWQ    LATE       Q     SW       ET     PET   YIELD   YIELD    SURQ    LATQ    PERC    CROP  ORGANIC SOLUBLE ORGANIC TILENO3
         (mm)    (mm)    (mm)    (mm)    (mm)    (mm)    (mm)    (mm)    (mm)    (mm)    (mm)   ------------------(kg nutrient/ha)-------------------- (kg/ha)
    1   98.91    9.76   16.86   19.57   40.88    0.00  269.99   32.24   42.06   55.34    0.01    0.02    0.03    0.63    0.00     0.02    0.02    0.00    0.00
    2   51.91    5.66    4.14   10.14    7.19    0.00  266.72   39.08   55.43   26.50    0.01    0.02    0.01    0.12    0.00     0.02    0.01    0.00    0.00
    3   64.36    6.00    7.64   10.05   12.79    0.00  233.05   73.22  131.93   30.16    0.01    0.01    0.02    0.21    0.03     0.01    0.01    0.00    0.00
    4  100.45    7.22    7.42    7.07    6.34    0.00  229.58   82.99  130.80   26.42    0.01    0.01    0.02    0.16    2.71     0.03    0.01    0.00    0.00
    5   37.75    1.58    3.23    5.52    1.74    0.00  174.35   90.34  185.70   14.47    0.00    0.04    0.01    0.02   12.03     0.01    0.00    0.00    0.00
    6   81.75    2.98    3.43    3.96    0.42    0.00  173.27   77.08  142.01   12.51    0.00    0.03    0.01    0.00    8.56     0.00    0.00    0.00    0.00
    7  130.91    5.72    8.33    3.49    2.81    0.00  194.36   92.22  129.71   18.92    0.00    0.01    0.00    0.00    2.82     0.01    0.00    0.00    0.00
    8   32.45    1.30    3.85    3.41    1.70    0.00  142.62   82.28  150.35   10.53    0.00    0.00    0.00    0.00    1.69     0.00    0.00    0.00    0.00
    9   71.07    2.94    5.07    2.78    0.83    0.00  142.17   63.87  111.26   12.08    0.00    0.00    0.00    0.00    1.48     0.00    0.00    0.00    0.00
   10  103.00    5.44    6.79    2.65    1.24    0.00  182.54   46.75   99.18   15.61    0.00    0.01    0.00    0.01    0.70     0.01    0.00    0.00    0.00
   11   84.30    4.21    7.30    3.11    4.84    0.00  207.93   41.87   62.13   15.80    0.01    0.00    0.01    0.05    0.04     0.01    0.00    0.00    0.00
   12  108.89    6.45   10.24    5.97   14.68    0.00  248.18   33.58   42.42   23.82    0.01    0.00    0.01    0.33    0.13     0.02    0.01    0.00    0.00

 2007  965.75   59.28   84.30   77.73   95.48    0.00  248.18  755.52 1282.98  262.18    0.06    0.16    0.12    1.53   30.21     0.14    0.09    0.03    0.00
1
    SWAT Jun 11 2014    VER 2012/Rev 627                                            

    General Input/Output section (file.cio):                                        
    1/30/2015 12:00:00 AM ARCGIS-SWAT interface AV                                  
                                                                                    
Annual Summary for Watershed in year   24 of simulation

UNIT                                    PERCO    TILE                           WATER     SED     NO3     NO3     NO3     NO3        N       P       P
TIME     PREC    SURQ    LATQ     GWQ    LATE       Q     SW       ET     PET   YIELD   YIELD    SURQ    LATQ    PERC    CROP  ORGANIC SOLUBLE ORGANIC TILENO3
         (mm)    (mm)    (mm)    (mm)    (mm)    (mm)    (mm)    (mm)    (mm)    (mm)    (mm)   ------------------(kg nutrient/ha)-------------------- (kg/ha)
    1   79.19    6.69   11.35    8.28   19.11    0.00  259.57   31.12   39.66   29.87    0.01    0.01    0.02    0.36    0.00     0.03    0.01    0.00    0.00
    2  122.54   10.70   15.70   15.12   38.07    0.00  270.40   44.43   55.09   48.20    0.03    0.01    0.04    1.12    0.00     0.07    0.02    0.01    0.00
    3  159.72   20.25   19.90   17.87   45.40    0.00  266.89   75.35   99.49   67.03    0.05    0.01    0.05    1.16    0.02     0.19    0.04    0.01    0.00
    4  129.43   14.10   13.23   18.35   26.20    0.00  252.78   90.20  131.40   56.82    0.05    0.01    0.02    0.67    1.98     0.19    0.03    0.01    0.00
    5  126.25    8.68    9.21    9.95   11.80    0.00  242.06  106.56  149.29   34.99    0.02    0.07    0.01    0.28   10.63     0.05    0.01    0.00    0.00
    6   63.85    2.97    5.76    7.33    2.61    0.00  202.65   96.52  149.72   20.92    0.00    0.02    0.01    0.01   11.65     0.01    0.00    0.00    0.00
    7  107.55    4.46    6.84    5.38    1.80    0.00  198.34   99.80  142.64   19.32    0.00    0.00    0.00    0.00    2.62     0.01    0.00    0.00    0.00
    8  128.07    8.94    8.28    4.58    5.27    0.00  221.42   81.31  126.55   23.04    0.01    0.00    0.00    0.02    1.36     0.01    0.01    0.00    0.00
    9   37.31    1.34    5.24    4.86    2.15    0.00  182.05   72.87  110.12   14.48    0.00    0.00    0.00    0.00    1.92     0.00    0.00    0.00    0.00
   10   73.70    3.76    4.32    3.68    1.43    0.00  192.25   53.98   93.72   13.49    0.00    0.00    0.00    0.03    0.36     0.01    0.00    0.00    0.00
   11   69.46    2.64    5.07    3.63    3.54    0.00  212.10   37.81   57.31   12.63    0.00    0.00    0.00    0.08    0.14     0.00    0.00    0.00    0.00
   12  225.18   24.64   29.50   17.90   69.44    0.00  276.12   27.68   32.58   74.94    0.05    0.01    0.03    0.92    0.16     0.06    0.05    0.01    0.00

 2008 1322.25  109.17  134.38  116.93  226.81    0.00  276.12  817.62 1187.58  415.72    0.23    0.15    0.19    4.65   30.82     0.64    0.20    0.06    0.00
1
    SWAT Jun 11 2014    VER 2012/Rev 627                                            

    General Input/Output section (file.cio):                                        
    1/30/2015 12:00:00 AM ARCGIS-SWAT interface AV                                  
                                                                                    
Annual Summary for Watershed in year   25 of simulation

UNIT                                    PERCO    TILE                           WATER     SED     NO3     NO3     NO3     NO3        N       P       P
TIME     PREC    SURQ    LATQ     GWQ    LATE       Q     SW       ET     PET   YIELD   YIELD    SURQ    LATQ    PERC    CROP  ORGANIC SOLUBLE ORGANIC TILENO3
         (mm)    (mm)    (mm)    (mm)    (mm)    (mm)    (mm)    (mm)    (mm)    (mm)    (mm)   ------------------(kg nutrient/ha)-------------------- (kg/ha)
    1  127.57   22.12   23.61   27.62   47.89    0.00  277.00   29.40   39.73   85.20    0.07    0.02    0.03    0.52    0.00     0.08    0.05    0.01    0.00
    2   73.44    7.57    7.45   13.57   14.29    0.00  284.00   40.32   53.02   38.60    0.01    0.01    0.02    0.24    0.00     0.03    0.02    0.00    0.00
    3  126.31   10.99   15.57   16.29   35.75    0.00  277.63   68.81   96.32   51.95    0.02    0.01    0.04    0.70    0.03     0.05    0.03    0.01    0.00
    4  110.68    9.73   13.23   18.11   25.34    0.00  247.48   94.64  130.64   51.81    0.02    0.01    0.03    0.53    2.26     0.07    0.03    0.01    0.00
    5  221.85   26.34   24.05   25.25   54.29    0.00  261.01   99.84  120.24   87.59    0.06    0.12    0.04    1.65   13.57     0.19    0.08    0.01    0.00
    6   94.76    6.65    9.69   12.09    7.61    0.00  222.75  112.23  150.30   38.62    0.01    0.04    0.01    0.04    8.73     0.03    0.01    0.00    0.00
    7  169.45   10.95   10.66    8.55    7.20    0.00  256.99  103.59  133.02   35.68    0.01    0.01    0.01    0.00    2.34     0.02    0.01    0.00    0.00
    8  107.37    7.85   12.62    9.18   15.00    0.00  234.02   97.92  121.69   36.59    0.01    0.01    0.00    0.01    1.57     0.02    0.02    0.00    0.00
    9  213.79   26.30   22.34   13.16   51.75    0.00  271.33   68.56   85.19   63.48    0.06    0.01    0.00    0.31    1.68     0.04    0.06    0.01    0.00
   10  177.62   16.30   24.55   27.16   56.85    0.00  288.46   60.22   69.49   79.68    0.01    0.01    0.01    0.43    0.56     0.03    0.03    0.01    0.00
   11   82.48   11.34   15.27   21.17   23.73    0.00  268.46   56.01   73.16   63.03    0.03    0.00    0.00    0.06    0.09     0.02    0.03    0.00    0.00
   12  181.28   29.74   26.89   27.05   67.28    0.00  290.12   30.42   36.79   96.56    0.04    0.01    0.01    0.46    0.02     0.05    0.06    0.01    0.00

 2009 1686.60  185.90  205.92  219.21  406.98    0.00  290.12  861.96 1109.59  728.79    0.36    0.26    0.21    4.93   30.86     0.66    0.43    0.07    0.00
1
    SWAT Jun 11 2014    VER 2012/Rev 627                                            

    General Input/Output section (file.cio):                                        
    1/30/2015 12:00:00 AM ARCGIS-SWAT interface AV                                  
                                                                                    
Annual Summary for Watershed in year   26 of simulation

UNIT                                    PERCO    TILE                           WATER     SED     NO3     NO3     NO3     NO3        N       P       P
TIME     PREC    SURQ    LATQ     GWQ    LATE       Q     SW       ET     PET   YIELD   YIELD    SURQ    LATQ    PERC    CROP  ORGANIC SOLUBLE ORGANIC TILENO3
         (mm)    (mm)    (mm)    (mm)    (mm)    (mm)    (mm)    (mm)    (mm)    (mm)    (mm)   ------------------(kg nutrient/ha)-------------------- (kg/ha)
    1  147.90   21.87   19.96   26.33   56.92    0.00  290.27   26.01   34.80   83.59    0.04    0.03    0.03    0.55    0.00     0.06    0.06    0.01    0.00
    2   91.85   16.88   19.57   32.60   49.38    0.00  283.23   34.12   45.52   86.90    0.03    0.02    0.03    0.49    0.00     0.06    0.04    0.01    0.00
    3  105.70    7.55    9.94   21.11   22.48    0.00  282.90   65.82   87.77   53.62    0.01    0.01    0.02    0.31    0.00     0.02    0.01    0.00    0.00
    4   82.86    6.26    6.78   14.71    7.16    0.00  256.34   91.11  160.95   38.36    0.01    0.01    0.01    0.12    0.55     0.03    0.01    0.00    0.00
    5  183.43   38.01   14.94   16.69   24.69    0.00  247.78  112.52  154.64   78.41    0.07    0.11    0.03    0.54   14.03     0.27    0.12    0.02    0.00
    6   86.66    3.85    7.14    9.97    4.13    0.00  217.69  104.54  137.70   27.48    0.00    0.02    0.01    0.03   10.14     0.01    0.01    0.00    0.00
    7  109.52    4.86    7.46    7.11    1.62    0.00  211.52  102.83  146.57   23.42    0.00    0.00    0.00    0.00    2.44     0.01    0.00    0.00    0.00
    8  109.15    7.70    9.80    6.59    5.08    0.00  202.68   96.94  135.39   26.45    0.01    0.00    0.00    0.01    1.84     0.01    0.01    0.00    0.00
    9   78.52    3.89    5.04    5.33    1.93    0.00  202.11   69.17  116.69   16.98    0.01    0.01    0.00    0.01    1.66     0.01    0.00    0.00    0.00
   10   83.89    5.12    6.58    5.04    5.58    0.00  217.07   51.45   95.37   18.77    0.01    0.00    0.00    0.12    0.49     0.02    0.00    0.00    0.00
   11  133.73   11.18   10.83    6.40   17.90    0.00  264.30   40.89   57.81   27.90    0.02    0.00    0.01    0.45    0.03     0.02    0.01    0.00    0.00
   12   92.97   16.42   14.29   13.56   24.73    0.00  276.62   26.46   33.99   49.95    0.03    0.00    0.02    0.28    0.01     0.04    0.04    0.00    0.00

 2010 1306.17  143.61  132.32  165.44  221.61    0.00  276.62  821.86 1207.19  531.84    0.24    0.22    0.18    2.90   31.20     0.56    0.33    0.06    0.00
1
    SWAT Jun 11 2014    VER 2012/Rev 627                                            

    General Input/Output section (file.cio):                                        
    1/30/2015 12:00:00 AM ARCGIS-SWAT interface AV                                  
                                                                                    
Annual Summary for Watershed in year   27 of simulation

UNIT                                    PERCO    TILE                           WATER     SED     NO3     NO3     NO3     NO3        N       P       P
TIME     PREC    SURQ    LATQ     GWQ    LATE       Q     SW       ET     PET   YIELD   YIELD    SURQ    LATQ    PERC    CROP  ORGANIC SOLUBLE ORGANIC TILENO3
         (mm)    (mm)    (mm)    (mm)    (mm)    (mm)    (mm)    (mm)    (mm)    (mm)    (mm)   ------------------(kg nutrient/ha)-------------------- (kg/ha)
    1   99.98   16.01   13.39   17.36   38.02    0.00  279.77   28.83   37.20   56.60    0.05    0.02    0.02    0.56    0.00     0.08    0.05    0.01    0.00
    2   96.47   13.13    9.51   13.99   22.77    0.00  281.27   46.85   66.61   42.46    0.02    0.01    0.02    0.40    0.01     0.05    0.02    0.00    0.00
    3  214.49   32.50   29.00   26.25   71.78    0.00  289.37   67.84   92.06  102.36    0.13    0.03    0.06    1.49    0.02     0.27    0.08    0.02    0.00
    4  241.39   49.99   26.19   25.56   66.50    0.00  278.85  103.18  135.46  109.63    0.17    0.15    0.05    2.11    2.96     0.49    0.11    0.02    0.00
    5   98.06   10.61   12.70   24.51   12.68    0.00  233.36  113.87  164.83   69.92    0.02    0.06    0.02    0.24   11.83     0.12    0.05    0.01    0.00
    6  151.14    9.67   10.38   11.84    9.39    0.00  255.77   97.18  146.32   39.80    0.02    0.02    0.01    0.06    8.29     0.03    0.01    0.00    0.00
    7   95.61    5.36    9.68   11.24    7.35    0.00  224.36  108.71  140.60   33.26    0.01    0.00    0.00    0.02    2.36     0.02    0.01    0.00    0.00
    8   59.82    3.12    5.68    8.35    2.95    0.00  187.26   88.84  140.55   21.92    0.00    0.00    0.00    0.01    1.60     0.00    0.01    0.00    0.00
    9  179.84   19.52   15.34   10.09   17.25    0.00  239.56   71.96   97.10   48.29    0.07    0.01    0.01    0.25    1.60     0.04    0.04    0.01    0.00
   10   66.47    3.19    5.41    7.56    3.13    0.00  230.10   65.44  104.02   19.99    0.00    0.00    0.00    0.00    0.47     0.00    0.00    0.00    0.00
   11  177.20   20.19   16.28    8.49   32.72    0.00  284.53   44.39   61.75   45.56    0.04    0.01    0.01    0.51    0.17     0.04    0.03    0.01    0.00
   12  159.41   22.08   28.83   28.15   69.69    0.00  286.49   35.24   42.89   91.08    0.03    0.01    0.02    0.94    0.04     0.06    0.05    0.01    0.00

 2011 1639.88  205.37  182.39  193.39  354.23    0.00  286.49  872.33 1229.38  680.89    0.55    0.32    0.23    6.59   29.34     1.21    0.48    0.09    0.00
1
    SWAT Jun 11 2014    VER 2012/Rev 627                                            

    General Input/Output section (file.cio):                                        
    1/30/2015 12:00:00 AM ARCGIS-SWAT interface AV                                  
                                                                                    
Annual Summary for Watershed in year   28 of simulation

UNIT                                    PERCO    TILE                           WATER     SED     NO3     NO3     NO3     NO3        N       P       P
[...]
   4103  55   HARTSELL   .935E+01   52.20  242.06    0.12    0.00  214.98    0.00    0.20 1450.69   31.84  410.51  851.65    0.03    0.23    0.20   16.29    5.54   31.84
   4104  55   NELLA      .146E+02   52.20  483.11    0.11    0.00    0.00    0.00    0.20 1450.69   34.49  380.54  887.23    0.00    0.00    0.00    7.59    0.35   34.49
   4105  55   NELLA      .589E+03   52.20  483.11    3.75    0.00    0.00    0.00    0.20 1450.69   18.53  568.69  840.30    0.01    0.48    0.03    8.53    0.36   18.53
   4106  55   NELLA      .162E+02   52.20  483.11    0.23    0.00    0.00    0.00    0.20 1450.69   34.38  382.13  887.01    0.00    0.01    0.00    7.60    0.35   34.38
   4107  55   NELLA      .637E+02   52.20  483.11    0.56    0.00    0.00    0.00    0.20 1450.69   33.97  387.20  886.31    0.00    0.02    0.01    7.62    0.35   33.97
   4108  55   HARTSELL   .268E+03   52.20  242.06    0.56    0.00    0.00    0.00    0.20 1450.69   27.88  389.30  892.21    0.01    0.03    0.01    5.54    0.26   27.88
   4109  55   HARTSELL   .755E+02   52.20  242.06    0.23    0.00    0.00    0.00    0.20 1450.69   28.03  384.29  892.87    0.00    0.01    0.01    5.53    0.26   28.03
   4110  55   HARTSELL   .526E+03   52.20  242.06    2.02    0.00    0.00    0.00    0.20 1450.69   24.43  470.99  877.90    0.02    0.35    0.04    5.81    0.27   24.43
   4111  55   HARTSELL   .326E+02   52.20  242.06    0.12    0.00    0.00    0.00    0.20 1450.69   28.11  382.82  893.07    0.00    0.01    0.00    5.52    0.26   28.11
   4112  55   TALBOTT    .638E+01   52.20  273.05    0.11    0.00    0.00    0.00    0.20 1450.69   32.15  412.15  848.97    0.00    0.01    0.01    4.72    0.21   32.15
   4113  55   TALBOTT    .150E+02   52.20  273.05    0.58    0.00    0.00    0.00    0.20 1450.69   31.72  429.31  847.46    0.03    0.07    0.06    4.74    0.21   31.72
   4114  55   TALBOTT    .471E+03   52.20  273.05    3.15    0.00    0.00    0.00    0.20 1450.69    0.74  754.12  696.40    0.12    0.41    0.15    5.78    0.21    0.74
   4115  55   TALBOTT    .426E+01   52.20  273.05    0.23    0.00    0.00    0.00    0.20 1450.69   32.05  416.30  848.62    0.01    0.02    0.02    4.73    0.21   32.05
   4116  55   WATER      .277E+03   52.20    7.37    0.07    0.00    0.00    0.00    0.20 1450.69    0.00    0.00 1193.03    0.00    0.00    0.00    0.00    0.00    0.00
   4117  55   WATER      .652E+01   52.20    7.37    0.21    0.00    0.00    0.00    0.20 1450.69    0.00    0.00 1193.03    0.00    0.00    0.00    0.00    0.00    0.00
   4118  55   WATER      .424E+01   52.20    7.37    0.44    0.00    0.00    0.00    0.20 1450.69    0.00    0.00 1193.03    0.00    0.00    0.00    0.00    0.00    0.00
   4119  55   WATER      .137E+01   52.20    7.37    1.98    0.00    0.00    0.00    0.20 1450.69    0.00    0.00 1193.03    0.00    0.00    0.00    0.00    0.00    0.00
   4120  55   ETOWAH     .762E+01   97.08  484.12    0.52    0.00  182.18    0.00    0.20 1450.69 1014.00    3.07  444.63    0.94    1.55    1.61   11.37    8.06 1014.00
   4121  55   ETOWAH     .104E+02   97.08  484.12    1.67    0.00  174.70    0.00    0.20 1450.69 1012.82   36.79  412.21    1.31    2.27    1.56   10.21    7.25 1012.82
   4122  55   ETOWAH     .487E+01   97.08  484.12    0.23    0.00  182.64    0.00    0.20 1450.69 1014.07    1.06  446.57    0.82    1.66    1.88   11.44    8.11 1014.07
   4123  55   ETOWAH     .466E+01   97.08  484.12    0.12    0.00  183.00    0.00    0.20 1450.69 1014.10    0.42  447.18    0.75    1.67    1.88   11.47    8.13 1014.08
   4124  55   NELLA      .264E+01   97.08  483.11    0.12    0.00  186.42    0.00    0.20 1450.69 1014.40    0.35  446.80    0.74    1.95    2.51   11.72    8.31 1014.39
   4125  55   NELLA      .138E+02   97.08  483.11    1.71    0.00  176.65    0.00    0.20 1450.69 1013.37   31.77  416.54    1.16    2.02    1.33   10.66    7.57 1013.37
   4126  55   NELLA      .327E+01   97.08  483.11    0.23    0.00  186.28    0.00    0.20 1450.69 1014.39    0.88  446.29    0.81    1.84    2.27   11.70    8.30 1014.38
   4127  55   NELLA      .903E+01   97.08  483.11    0.54    0.00  185.84    0.00    0.20 1450.69 1014.33    2.63  444.60    0.92    1.49    1.43   11.64    8.25 1014.33
   4128  55   HARTSELL   .115E+02   97.08  242.06    0.12    0.00  175.71    0.00    0.20 1450.69 1018.65    0.24  436.17    0.75    1.25    1.16   12.03    8.54 1018.64
   4129  55   HARTSELL   .381E+02   97.08  242.06    1.47    0.00  175.10    0.00    0.20 1450.69 1018.49    6.12  430.50    1.17    1.12    0.83   11.85    8.42 1018.49
   4130  55   HARTSELL   .244E+02   97.08  242.06    0.23    0.00  175.69    0.00    0.20 1450.69 1018.64    0.59  435.83    0.83    1.09    0.82   12.02    8.53 1018.64
   4131  55   HARTSELL   .622E+02   97.08  242.06    0.52    0.00  175.58    0.00    0.20 1450.69 1018.61    1.73  434.73    0.94    0.98    0.60   11.99    8.51 1018.61
   4132  55   ETOWAH     .359E+01   52.20  484.12    0.23    0.00    0.00    0.00    0.20 1450.69   33.08  380.37  890.61    0.00    0.01    0.00    7.42    0.00   33.08
   4133  55   ETOWAH     .610E+01   52.20  484.12    0.52    0.00    0.00    0.00    0.20 1450.69   32.79  385.38  889.99    0.00    0.02    0.01    7.44    0.00   32.79
   4134  55   ETOWAH     .151E+02   52.20  484.12    2.44    0.00    0.00    0.00    0.20 1450.69   25.09  486.13  872.65    0.01    0.24    0.04    7.92    0.00   25.09
   4135  55   ETOWAH     .515E+01   52.20  484.12    0.11    0.00    0.00    0.00    0.20 1450.69   33.18  378.63  890.83    0.00    0.00    0.00    7.41    0.00   33.18
   4136  55   NELLA      .281E+01   52.20  483.11    0.23    0.00    0.00    0.00    0.20 1450.69   33.89  374.82  897.38    0.00    0.01    0.00    8.67    0.00   33.89
   4137  55   NELLA      .108E+02   52.20  483.11    0.56    0.00    0.00    0.00    0.20 1450.69   33.61  379.75  896.74    0.00    0.02    0.01    8.69    0.00   33.61
   4138  55   NELLA      .192E+01   52.20  483.11    0.11    0.00    0.00    0.00    0.20 1450.69   33.98  373.25  897.58    0.00    0.00    0.00    8.66    0.00   33.98
   4139  55   NELLA      .370E+02   52.20  483.11    2.29    0.00    0.00    0.00    0.20 1450.69   24.95  500.80  873.31    0.01    0.35    0.02    9.24    0.00   24.95
   4140  55   HARTSELL   .915E+01   52.20  242.06    0.23    0.00    0.00    0.00    0.20 1450.69   27.45  381.91  896.75    0.00    0.01    0.00    6.27    0.00   27.45
   4141  55   HARTSELL   .402E+01   52.20  242.06    0.12    0.00    0.00    0.00    0.20 1450.69   27.52  380.46  896.93    0.00    0.01    0.00    6.26    0.00   27.52
   4142  55   HARTSELL   .427E+02   52.20  242.06    2.11    0.00    0.00    0.00    0.20 1450.69   26.75  409.35  893.01    0.02    0.12    0.04    6.38    0.00   26.75
   4143  55   HARTSELL   .315E+02   52.20  242.06    0.56    0.00    0.00    0.00    0.20 1450.69   27.32  386.87  896.11    0.01    0.03    0.01    6.29    0.00   27.32
   4144  55   ETOWAH     .212E+02   52.20  484.12    2.61    0.00    0.00    0.00    0.20 1450.69   21.78  533.56  852.60    0.01    0.34    0.05    7.36    0.31   21.78
   4145  55   ETOWAH     .577E+01   52.20  484.12    0.52    0.00    0.00    0.00    0.20 1450.69   32.96  390.82  882.55    0.00    0.02    0.02    6.51    0.29   32.96
   4146  55   ETOWAH     .462E+01   52.20  484.12    0.21    0.00    0.00    0.00    0.20 1450.69   33.35  385.50  883.28    0.00    0.01    0.01    6.49    0.29   33.35
   4147  55   ETOWAH     .771E+01   52.20  484.12    0.11    0.00    0.00    0.00    0.20 1450.69   33.47  383.89  883.49    0.00    0.00    0.00    6.48    0.29   33.47
   4148  55   NELLA      .113E+02   52.20  483.11    0.56    0.00    0.00    0.00    0.20 1450.69   33.97  387.20  886.31    0.00    0.02    0.01    7.62    0.35   33.97
   4149  55   NELLA      .353E+01   52.20  483.11    0.23    0.00    0.00    0.00    0.20 1450.69   34.38  382.13  887.01    0.00    0.01    0.00    7.60    0.35   34.38
   4150  55   NELLA      .348E+01   52.20  483.11    0.11    0.00    0.00    0.00    0.20 1450.69   34.49  380.54  887.23    0.00    0.00    0.00    7.59    0.35   34.49
   4151  55   NELLA      .441E+02   52.20  483.11    2.42    0.00    0.00    0.00    0.20 1450.69   25.23  512.53  861.32    0.01    0.37    0.03    8.28    0.36   25.23
   4152  55   HARTSELL   .753E+01   52.20  242.06    0.12    0.00    0.00    0.00    0.20 1450.69   28.11  382.82  893.07    0.00    0.01    0.00    5.52    0.26   28.11
   4153  55   HARTSELL   .179E+02   52.20  242.06    0.23    0.00    0.00    0.00    0.20 1450.69   28.03  384.29  892.87    0.00    0.01    0.00    5.53    0.26   28.03
   4154  55   HARTSELL   .568E+02   52.20  242.06    0.54    0.00    0.00    0.00    0.20 1450.69   27.88  389.09  892.24    0.01    0.03    0.01    5.54    0.26   27.88
   4155  55   HARTSELL   .708E+02   52.20  242.06    2.07    0.00    0.00    0.00    0.20 1450.69   27.18  411.94  888.87    0.03    0.12    0.06    5.61    0.26   27.18
   4156  55   ETOWAH     .848E+01   52.20  484.12    1.82    0.00    0.00    0.00    0.20 1450.69   33.78  529.09  793.61    0.27    0.45    0.77    3.27    0.24   33.78
   4157  55   ETOWAH     .400E+01   52.20  484.12    0.21    0.00    0.00    0.00    0.20 1450.69   38.80  433.92  811.13    0.02    0.02    0.08    2.95    0.22   38.80
   4158  55   ETOWAH     .571E+01   52.20  484.12    0.52    0.00    0.00    0.00    0.20 1450.69   38.54  439.35  810.30    0.06    0.04    0.24    2.97    0.22   38.54
   4159  55   ETOWAH     .753E+01   52.20  484.12    0.11    0.00    0.00    0.00    0.20 1450.69   38.88  432.27  811.38    0.01    0.01    0.03    2.95    0.22   38.88
   4160  55   NELLA      .292E+02   52.20  483.11    2.14    0.00    0.00    0.00    0.20 1450.69   35.47  524.27  798.33    0.19    0.53    0.58    3.69    0.28   35.47
   4161  55   NELLA      .107E+02   52.20  483.11    0.56    0.00    0.00    0.00    0.20 1450.69   39.38  435.34  814.93    0.04    0.05    0.14    3.41    0.27   39.38
   4162  55   NELLA      .327E+01   52.20  483.11    0.23    0.00    0.00    0.00    0.20 1450.69   39.61  430.14  815.77    0.01    0.02    0.04    3.39    0.27   39.61
   4163  55   NELLA      .442E+01   52.20  483.11    0.11    0.00    0.00    0.00    0.20 1450.69   39.69  428.48  816.03    0.00    0.01    0.02    3.38    0.27   39.69
   4164  55   HARTSELL   .911E+01   52.20  242.06    0.23    0.00    0.00    0.00    0.20 1450.69   30.68  417.80  844.23    0.02    0.02    0.06    1.86    0.17   30.68
   4165  55   HARTSELL   .343E+01   52.20  242.06    0.12    0.00    0.00    0.00    0.20 1450.69   30.75  416.27  844.42    0.01    0.01    0.02    1.86    0.17   30.75
   4166  55   HARTSELL   .482E+02   52.20  242.06    2.04    0.00    0.00    0.00    0.20 1450.69   30.27  445.83  840.37    0.40    0.17    0.66    1.91    0.17   30.27
   4167  55   HARTSELL   .329E+02   52.20  242.06    0.56    0.00    0.00    0.00    0.20 1450.69   30.60  422.98  843.57    0.09    0.04    0.20    1.87    0.17   30.60
   4168  55   HARTSELL   .536E+02   52.20  242.06    0.52    0.00  318.72    0.00    0.20 1450.69   25.11  364.41  928.61    0.01    1.09    0.03   11.93   10.66   25.11
   4169  55   HARTSELL   .262E+02   52.20  242.06    1.25    0.00  317.65    0.00    0.20 1450.69   24.81  378.89  926.36    0.02    3.19    0.07   11.92   10.64   24.82
   4170  55   HARTSELL   .221E+02   52.20  242.06    0.23    0.00  319.13    0.00    0.20 1450.69   25.21  359.93  929.27    0.00    0.43    0.01   11.94   10.67   25.21
   4171  55   HARTSELL   .868E+01   52.20  242.06    0.12    0.00  319.22    0.00    0.20 1450.69   25.27  358.50  929.47    0.00    0.22    0.00   11.95   10.67   25.27
   4172  55   NELLA      .880E+02   52.20  483.11    2.07    0.00    0.00    0.00    0.20 1450.69   31.77  399.01  898.35    0.13    0.16    0.48    0.20    0.00   31.77
   4173  55   NELLA      .217E+02   52.20  483.11    0.23    0.00    0.00    0.00    0.20 1450.69   33.66  371.21  902.46    0.01    0.02    0.04    0.19    0.00   33.66
   4174  55   NELLA      .747E+02   52.20  483.11    0.54    0.00    0.00    0.00    0.20 1450.69   33.35  376.04  901.78    0.03    0.04    0.11    0.19    0.00   33.35
   4175  55   NELLA      .155E+02   52.20  483.11    0.11    0.00    0.00    0.00    0.20 1450.69   33.77  369.61  902.69    0.00    0.01    0.01    0.19    0.00   33.77
   4176  55   HARTSELL   .349E+03   52.20  242.06    1.44    0.00    0.00    0.00    0.20 1450.69   26.70  398.84  899.77    0.22    0.13    0.55    0.11    0.00   26.70
   4177  55   HARTSELL   .491E+03   52.20  242.06    0.54    0.00    0.00    0.00    0.20 1450.69   27.28  382.35  901.92    0.06    0.04    0.18    0.11    0.00   27.28
   4178  55   HARTSELL   .689E+02   52.20  242.06    0.12    0.00    0.00    0.00    0.20 1450.69   27.54  376.15  902.66    0.01    0.01    0.03    0.11    0.00   27.54
   4179  55   HARTSELL   .175E+03   52.20  242.06    0.23    0.00    0.00    0.00    0.20 1450.69   27.45  377.61  902.49    0.02    0.02    0.07    0.11    0.00   27.45



                AVE MONTHLY BASIN VALUES
                   SNOW                      WATER               SED
  MON     RAIN     FALL   SURF Q    LAT Q    YIELD       ET    YIELD      PET
          (MM)     (MM)     (MM)     (MM)     (MM)     (MM)   (T/HA)     (MM)
    1   131.80    15.61    19.41    19.31    70.07    31.21     0.04    41.45
    2   119.79    12.13    18.38    16.65    67.07    40.20     0.07    53.31
    3   131.99     3.33    16.41    17.12    68.59    71.00     0.04    99.62
    4   118.82     0.50    12.23    12.65    52.76    90.87     0.04   135.83
    5   126.11     0.02    12.16    11.72    47.74   105.58     0.03   155.03
    6   122.13     0.00     8.54    10.54    36.77    98.56     0.01   136.99
    7   126.47     0.00     8.42    10.95    35.41   103.68     0.02   139.77
    8   100.93     0.00     6.79     8.90    29.01    91.78     0.01   129.57
    9   114.24     0.00     9.75     9.58    30.53    71.91     0.02   105.24
   10    83.54     0.03     6.13     8.47    27.95    61.20     0.01    93.89
   11   117.93     1.39    10.09    11.69    34.48    43.08     0.01    61.43
   12   138.96     9.91    17.69    18.83    60.00    30.99     0.02    40.13

     AVE ANNUAL BASIN STRESS DAYS
               WATER STRESS DAYS =     8.94
               TEMPERATURE STRESS DAYS =    58.04
               NITROGEN STRESS DAYS =    93.14
               PHOSPHORUS STRESS DAYS =     0.08
               AERATION STRESS DAYS =     0.03
1
    SWAT Jun 11 2014    VER 2012/Rev 627                                            

    General Input/Output section (file.cio):                                        
    1/30/2015 12:00:00 AM ARCGIS-SWAT interface AV                                  
                                                                                    
         AVE ANNUAL BASIN VALUES

              PRECIP =   1433.7 MM
              SNOW FALL =   43.04 MM
              SNOW MELT =    42.80 MM
              SUBLIMATION =     0.24 MM
              SURFACE RUNOFF Q =   146.17 MM
              LATERAL SOIL Q =  156.56 MM
              TILE Q =     0.00 MM
              GROUNDWATER (SHAL AQ) Q =   169.36 MM
              GROUNDWATER (DEEP AQ) Q =    88.95 MM
              REVAP (SHAL AQ => SOIL/PLANTS) =   19.65 MM
              DEEP AQ RECHARGE =    89.18 MM
              TOTAL AQ RECHARGE =  278.20 MM
              TOTAL WATER YLD =   560.96 MM
              PERCOLATION OUT OF SOIL =  281.57 MM
              ET =    840.4 MM
              PET =   1192.7MM
              TRANSMISSION LOSSES =     0.00 MM
              SEPTIC INFLOW =       0.00 MM
              TOTAL SEDIMENT LOADING =     0.312 T/HA
              TILE FROM IMPOUNDED WATER =     0.000 (MM)
              EVAPORATION FROM IMPOUNDED WATER =     0.000 (MM)
              SEEPAGE INTO SOIL FROM IMPOUNDED WATER =    0.000 (MM)
              OVERFLOW FROM IMPOUNDED WATER =    0.000 (MM)
1
    SWAT Jun 11 2014    VER 2012/Rev 627                                            

    General Input/Output section (file.cio):                                        
    1/30/2015 12:00:00 AM ARCGIS-SWAT interface AV                                  
                                                                                    
              AVE ANNUAL BASIN VALUES


              NUTRIENTS
                   ORGANIC N =     0.692 (KG/HA)
                   ORGANIC P =     0.059 (KG/HA)
                   NO3 YIELD (SQ) =     0.200 (KG/HA)
                   NO3 YIELD (LAT) =    0.244 (KG/HA)
                   NO3 YIELD (TILE) =    0.000 (KG/HA)
                   SOLP YIELD (TILE) =    0.000(KG/HA)
                   SOLP YIELD (SURF INLET RISER) =    0.000 (KG/HA)
                   SOL P YIELD =    0.324 (KG/HA)
                   NO3 LEACHED =     4.196 (KG/HA)
                   P LEACHED =     1.195 (KG/HA)
                   N UPTAKE =    30.408 (KG/HA)
                   P UPTAKE =    8.606 (KG/HA)
                   NO3 YIELD (GWQ) =     2.119 (KG/HA)
                   ACTIVE TO SOLUTION P FLOW =        -8.896 (KG/HA)
                   ACTIVE TO STABLE P FLOW =        -6.673 (KG/HA)
                   N FERTILIZER APPLIED =    21.229 (KG/HA)
                   P FERTILIZER APPLIED =     0.000 (KG/HA)
                   N FIXATION =     0.596 (KG/HA)
                   DENITRIFICATION =     0.906 (KG/HA)
                   HUMUS MIN ON ACTIVE ORG N =     3.383 (KG/HA)
                   ACTIVE TO STABLE ORG N =    -1.237 (KG/HA)
                   HUMUS MIN ON ACTIVE ORG P =    0.244 (KG/HA)
                   MIN FROM FRESH ORG N =   11.792 (KG/HA)
                   MIN FROM FRESH ORG P =    3.770 (KG/HA)
                   NO3 IN RAINFALL =     0.000 (KG/HA)
                   INITIAL NO3 IN SOIL =      52.907 (KG/HA)
                   FINAL NO3 IN SOIL =         2.493 (KG/HA)
                   INITIAL ORG N IN SOIL =    5181.844 (KG/HA)
                   FINAL ORG N IN SOIL =      5155.347 (KG/HA)
                   INITIAL MIN P IN SOIL =   14509.363 (KG/HA)
                   FINAL MIN P IN SOIL =     14166.938 (KG/HA)
                   INITIAL ORG P IN SOIL =     189.279 (KG/HA)
                   FINAL ORG P IN SOIL =     219.922 (KG/HA)
                   NO3 IN FERT =    21.229 (KG/HA)
                   AMMONIA IN FERT =     0.000 (KG/HA)
                   ORG N IN FERT =     0.000 (KG/HA)
                   MINERAL P IN FERT =     0.000 (KG/HA)
                   ORG P IN FERT =     0.000 (KG/HA)
                   N REMOVED IN YIELD =    14.143 (KG/HA)
                   P REMOVED IN YIELD =     2.610 (KG/HA)
                   AMMONIA VOLATILIZATION =     0.000 (KG/HA)
                   AMMONIA NITRIFICATION =      0.000 (KG/HA)
                   NO3 EVAP-LAYER 2 TO 1 =    1.719

                   DIE-GRO P Q =       0.0 (No/HA)
                   DIE-GRO LP Q =       0.0 (No/HA)
                   DIE-GRO P SED =      0.1 (No/HA)
                   DIE-GRO LP SED =      0.0 (No/HA)
                   BACT P RUNOFF =      0.0 (No/HA)
                   BACT LP RUNOFF =      0.0 (No/HA)
                   BACT P SEDIMENT =      0.1 (No/HA)
                   BACT LP SEDIMENT =      0.0 (No/HA)
                   BACT P INCORP =      0.0 (No/HA)
                   BACT LP INCORP =      0.0 (No/HA)

                   NITRATE SEPTIC =         0.00 (kg/ha)
                   AMMONIA SEPTIC =         0.00 (kg/ha)
                   ORG N SEPTIC =         0.00 (kg/ha)
                   FRESH ORGN SEPTIC =         0.00 (kg/ha)
                   ORG P SEPTIC =         0.00 (kg/ha)
                   FRESH ORGP SEPTIC =         0.00 (kg/ha)
                   SOL P SEPTIC =         0.00 (kg/ha)
                   BOD SEPTIC =         0.00 (kg/ha)
